/*---------------------------------------------------------------------------*\
| =========                 |                                                 |
| \\      /  F ield         | OpenFOAM: The Open Source CFD Toolbox           |
|  \\    /   O peration     | Version:  5.x                                   |
|   \\  /    A nd           | Web:      www.OpenFOAM.org                      |
|    \\/     M anipulation  |                                                 |
\*---------------------------------------------------------------------------*/
Build  : 5.x
Exec   : mppicPbeCryFoam -parallel
Date   : Apr 07 2024
Time   : 18:09:42
Host   : "oztekinlab-All-Series"
PID    : 1597936
I/O    : uncollated
Case   : /home/oztekinlab/OpenFOAM/OpenFOAM-5.x/MP-PIC-PBE_CryFoam-master/Test1
nProcs : 6
Slaves : 
5
(
"oztekinlab-All-Series.1597937"
"oztekinlab-All-Series.1597938"
"oztekinlab-All-Series.1597939"
"oztekinlab-All-Series.1597940"
"oztekinlab-All-Series.1597941"
)

Pstream initialized with:
    floatTransfer      : 0
    nProcsSimpleSum    : 0
    commsType          : nonBlocking
    polling iterations : 0
sigFpe : Enabling floating point exception trapping (FOAM_SIGFPE).
fileModificationChecking : Monitoring run-time modified files using timeStampMaster (fileModificationSkew 10)
allowSystemOperations : Allowing user-supplied system call operations

// * * * * * * * * * * * * * * * * * * * * * * * * * * * * * * * * * * * * * //
Create time

Create mesh for time = 0


PIMPLE: max iterations = 100
    field p	: relTol 0, tolerance 0.001
    field U	: relTol 0, tolerance 0.001
    field "(h|e)"	: relTol 0, tolerance 5e-05


Reading g
Creating themophysical properties model

Selecting thermodynamics package 
{
    type            heRhoThermo;
    mixture         multiComponentMixture;
    transport       polynomial;
    thermo          hPolynomial;
    equationOfState icoPolynomial;
    specie          specie;
    energy          sensibleEnthalpy;
}


Reading field U

Creating multi-variate interpolation scheme

Creating field alphac

Constructing kinematicCloud
Constructing particle forces
    Selecting particle force ErgunWenYuDrag
    Selecting particle force gravity
Constructing cloud functions
    none
Constructing particle injection models
Creating injector: model
Selecting injection model patchInjection
    Constructing 3-D injection
    Choosing nParticle to be a fixed value, massTotal variable now does not determine anything.
Selecting distribution model fixedValue
Selecting dispersion model none
Selecting patch interaction model localInteraction
--> FOAM Warning : 
    From function Foam::patchInteractionDataList::patchInteractionDataList(const Foam::polyMesh&, const Foam::dictionary&)
    in file submodels/Kinematic/PatchInteractionModel/LocalInteraction/patchInteractionDataList.C at line 60
    Cannot find any patch names matching frontAndBack
    Interaction fields will not be written
Selecting stochastic collision model none
Selecting surface film model none
Selecting U integration scheme Euler
Selecting packing model explicit
Selecting particle stress model HarrisCrighton
Selecting correction limiter absolute
Selecting damping model relaxation
Selecting time scale model nonEquilibrium
Selecting isotropy model stochastic
Selecting time scale model isotropic
Creating turbulence model

Selecting turbulence model type RAS
Selecting RAS turbulence model kEpsilon
RAS
{
    RASModel        kEpsilon;
    turbulence      on;
    printCoeffs     on;
    Cmu             0.09;
    C1              1.44;
    C2              1.92;
    C3              0;
    sigmak          1;
    sigmaEps        1.3;
}

Creating field dpdt

Creating field kinetic energy K

No finite volume options present

Courant Number mean: 6.9536e-07 max: 0.00327196

Starting time loop

Courant Number mean: 6.9536e-07 max: 0.00327196
Time = 0.001

Evolving kinematicCloud

Solving 3-D cloud kinematicCloud

Cloud: kinematicCloud injector: model
    Added 100 new parcels

Cloud: kinematicCloud
    Current number of parcels       = 100
    Current mass in system          = 5.12806e-09
    Linear momentum                 = (1.94694e-09 0 1.53929e-309)
   |Linear momentum|                = 1.94694e-09
    Linear kinetic energy           = 3.8104e-10
    model:
        number of parcels added     = 100
        mass introduced             = 0
    Parcel fate (number, mass)      : patch frontAndBack
      - escape                      = 0, 0
      - stick                       = 0, 0
    Parcel fate (number, mass)      : patch walls
      - escape                      = 0, 0
      - stick                       = 0, 0
    Parcel fate (number, mass)      : patch sup_side_inlet|inf_side_inlet|solution_inlet|outlet
      - escape                      = 0, 0
      - stick                       = 0, 0
    Min cell volume fraction        = 0
    Max cell volume fraction        = 1.41639e-05
    Min dense number of parcels     = 1.05976

PIMPLE: iteration 1
smoothSolver:  Solving for Ux, Initial residual = 1, Final residual = 1.27096e-07, No Iterations 4
smoothSolver:  Solving for Uy, Initial residual = 1, Final residual = 3.69404e-07, No Iterations 5
smoothSolver:  Solving for Uz, Initial residual = 1, Final residual = 3.81413e-07, No Iterations 4
GAMG:  Solving for solute, Initial residual = 1, Final residual = 0.0081602, No Iterations 1
GAMG:  Solving for solvent, Initial residual = 1, Final residual = 0.00815932, No Iterations 1
GAMG:  Solving for h, Initial residual = 1, Final residual = 0.00832177, No Iterations 1
T min/max   290.222, 305.21
GAMG:  Solving for p, Initial residual = 1, Final residual = 0.0479532, No Iterations 66
time step continuity errors : sum local = 0, global = 0, cumulative = 0
GAMG:  Solving for p, Initial residual = 0.0278106, Final residual = 8.84546e-05, No Iterations 38
time step continuity errors : sum local = 0, global = 0, cumulative = 0
PIMPLE: iteration 2
smoothSolver:  Solving for Ux, Initial residual = 0.713299, Final residual = 1.86605e-07, No Iterations 6
smoothSolver:  Solving for Uy, Initial residual = 0.191621, Final residual = 8.20023e-07, No Iterations 5
smoothSolver:  Solving for Uz, Initial residual = 0.307523, Final residual = 6.76567e-07, No Iterations 6
GAMG:  Solving for solute, Initial residual = 0.637662, Final residual = 0.000787254, No Iterations 2
GAMG:  Solving for solvent, Initial residual = 0.637594, Final residual = 0.000787142, No Iterations 2
GAMG:  Solving for h, Initial residual = 0.913281, Final residual = 0.000422728, No Iterations 1
T min/max   293.15, 305.907
GAMG:  Solving for p, Initial residual = 0.0138231, Final residual = 0.000913459, No Iterations 36
time step continuity errors : sum local = 0, global = 0, cumulative = 0
GAMG:  Solving for p, Initial residual = 0.0602566, Final residual = 9.9825e-05, No Iterations 56
time step continuity errors : sum local = 0, global = 0, cumulative = 0
PIMPLE: iteration 3
smoothSolver:  Solving for Ux, Initial residual = 0.283131, Final residual = 4.66047e-07, No Iterations 5
smoothSolver:  Solving for Uy, Initial residual = 0.0216058, Final residual = 6.11707e-07, No Iterations 4
smoothSolver:  Solving for Uz, Initial residual = 0.0589761, Final residual = 6.06964e-07, No Iterations 5
GAMG:  Solving for solute, Initial residual = 0.00845447, Final residual = 4.51222e-05, No Iterations 2
GAMG:  Solving for solvent, Initial residual = 0.00845435, Final residual = 4.51217e-05, No Iterations 2
GAMG:  Solving for h, Initial residual = 0.0741912, Final residual = 0.00021689, No Iterations 1
T min/max   293.15, 305.777
GAMG:  Solving for p, Initial residual = 0.0131434, Final residual = 0.000916374, No Iterations 32
time step continuity errors : sum local = 0, global = 0, cumulative = 0
GAMG:  Solving for p, Initial residual = 0.0351619, Final residual = 9.42633e-05, No Iterations 50
time step continuity errors : sum local = 0, global = 0, cumulative = 0
PIMPLE: iteration 4
smoothSolver:  Solving for Ux, Initial residual = 0.143352, Final residual = 2.61392e-07, No Iterations 5
smoothSolver:  Solving for Uy, Initial residual = 0.0323209, Final residual = 6.80687e-07, No Iterations 4
smoothSolver:  Solving for Uz, Initial residual = 0.0765576, Final residual = 6.27265e-07, No Iterations 5
GAMG:  Solving for solute, Initial residual = 0.00126646, Final residual = 1.23873e-05, No Iterations 2
GAMG:  Solving for solvent, Initial residual = 0.00126637, Final residual = 1.23871e-05, No Iterations 2
GAMG:  Solving for h, Initial residual = 0.247469, Final residual = 0.000194599, No Iterations 1
T min/max   293.15, 305.567
GAMG:  Solving for p, Initial residual = 0.0127024, Final residual = 0.000877109, No Iterations 3
time step continuity errors : sum local = 0, global = 0, cumulative = 0
GAMG:  Solving for p, Initial residual = 0.00537425, Final residual = 9.63163e-05, No Iterations 23
time step continuity errors : sum local = 0, global = 0, cumulative = 0
PIMPLE: iteration 5
smoothSolver:  Solving for Ux, Initial residual = 0.0989201, Final residual = 9.11419e-07, No Iterations 4
smoothSolver:  Solving for Uy, Initial residual = 0.0134876, Final residual = 3.72897e-07, No Iterations 4
smoothSolver:  Solving for Uz, Initial residual = 0.0429027, Final residual = 3.85613e-07, No Iterations 5
GAMG:  Solving for solute, Initial residual = 0.00162395, Final residual = 9.79631e-06, No Iterations 2
GAMG:  Solving for solvent, Initial residual = 0.0016239, Final residual = 9.79614e-06, No Iterations 2
GAMG:  Solving for h, Initial residual = 0.147859, Final residual = 7.99057e-05, No Iterations 1
T min/max   293.15, 305.49
GAMG:  Solving for p, Initial residual = 0.00663678, Final residual = 0.000901881, No Iterations 14
time step continuity errors : sum local = 0, global = 0, cumulative = 0
GAMG:  Solving for p, Initial residual = 0.00585424, Final residual = 9.73524e-05, No Iterations 32
time step continuity errors : sum local = 0, global = 0, cumulative = 0
PIMPLE: iteration 6
smoothSolver:  Solving for Ux, Initial residual = 0.0193783, Final residual = 2.52793e-07, No Iterations 4
smoothSolver:  Solving for Uy, Initial residual = 0.00803743, Final residual = 3.4683e-07, No Iterations 4
smoothSolver:  Solving for Uz, Initial residual = 0.0284753, Final residual = 3.17328e-07, No Iterations 5
GAMG:  Solving for solute, Initial residual = 0.000612943, Final residual = 1.69069e-06, No Iterations 3
GAMG:  Solving for solvent, Initial residual = 0.000612915, Final residual = 1.69067e-06, No Iterations 3
GAMG:  Solving for h, Initial residual = 0.0433154, Final residual = 5.15352e-05, No Iterations 1
T min/max   293.15, 305.457
GAMG:  Solving for p, Initial residual = 0.00337737, Final residual = 0.000886768, No Iterations 4
time step continuity errors : sum local = 0, global = 0, cumulative = 0
GAMG:  Solving for p, Initial residual = 0.00224516, Final residual = 9.0622e-05, No Iterations 20
time step continuity errors : sum local = 0, global = 0, cumulative = 0
PIMPLE: iteration 7
smoothSolver:  Solving for Ux, Initial residual = 0.0165973, Final residual = 2.61457e-07, No Iterations 4
smoothSolver:  Solving for Uy, Initial residual = 0.00713439, Final residual = 3.25174e-07, No Iterations 4
smoothSolver:  Solving for Uz, Initial residual = 0.0235454, Final residual = 2.83208e-07, No Iterations 5
GAMG:  Solving for solute, Initial residual = 0.000466657, Final residual = 1.52714e-06, No Iterations 3
GAMG:  Solving for solvent, Initial residual = 0.000466639, Final residual = 1.52712e-06, No Iterations 3
GAMG:  Solving for h, Initial residual = 0.0135313, Final residual = 3.90172e-05, No Iterations 1
T min/max   293.15, 305.443
GAMG:  Solving for p, Initial residual = 0.00208378, Final residual = 0.000562848, No Iterations 1
time step continuity errors : sum local = 0, global = 0, cumulative = 0
GAMG:  Solving for p, Initial residual = 0.000949631, Final residual = 9.67286e-05, No Iterations 4
time step continuity errors : sum local = 0, global = 0, cumulative = 0
PIMPLE: iteration 8
smoothSolver:  Solving for Ux, Initial residual = 0.0112016, Final residual = 2.26296e-07, No Iterations 4
smoothSolver:  Solving for Uy, Initial residual = 0.00600408, Final residual = 2.99806e-07, No Iterations 4
smoothSolver:  Solving for Uz, Initial residual = 0.0206867, Final residual = 2.54225e-07, No Iterations 5
GAMG:  Solving for solute, Initial residual = 0.00159239, Final residual = 7.66911e-06, No Iterations 2
GAMG:  Solving for solvent, Initial residual = 0.00159236, Final residual = 7.66901e-06, No Iterations 2
GAMG:  Solving for h, Initial residual = 0.00969671, Final residual = 2.70834e-05, No Iterations 1
T min/max   293.15, 305.436
GAMG:  Solving for p, Initial residual = 0.00154658, Final residual = 0.000991904, No Iterations 1
time step continuity errors : sum local = 0, global = 0, cumulative = 0
GAMG:  Solving for p, Initial residual = 0.00123641, Final residual = 8.94324e-05, No Iterations 15
time step continuity errors : sum local = 0, global = 0, cumulative = 0
PIMPLE: iteration 9
smoothSolver:  Solving for Ux, Initial residual = 0.0082078, Final residual = 2.10904e-07, No Iterations 4
smoothSolver:  Solving for Uy, Initial residual = 0.00529242, Final residual = 2.82003e-07, No Iterations 4
smoothSolver:  Solving for Uz, Initial residual = 0.0187998, Final residual = 2.36506e-07, No Iterations 5
GAMG:  Solving for solute, Initial residual = 0.000737772, Final residual = 6.7983e-06, No Iterations 2
GAMG:  Solving for solvent, Initial residual = 0.000737762, Final residual = 6.79821e-06, No Iterations 2
GAMG:  Solving for h, Initial residual = 0.00976976, Final residual = 2.00504e-05, No Iterations 1
T min/max   293.15, 305.431
GAMG:  Solving for p, Initial residual = 0.00127537, Final residual = 0.000195818, No Iterations 1
time step continuity errors : sum local = 0, global = 0, cumulative = 0
GAMG:  Solving for p, Initial residual = 0.000451616, Final residual = 8.33653e-05, No Iterations 4
time step continuity errors : sum local = 0, global = 0, cumulative = 0
PIMPLE: iteration 10
smoothSolver:  Solving for Ux, Initial residual = 0.00657534, Final residual = 1.94896e-07, No Iterations 4
smoothSolver:  Solving for Uy, Initial residual = 0.00477613, Final residual = 2.65399e-07, No Iterations 4
smoothSolver:  Solving for Uz, Initial residual = 0.01702, Final residual = 2.22634e-07, No Iterations 5
GAMG:  Solving for solute, Initial residual = 0.000677966, Final residual = 5.98488e-06, No Iterations 2
GAMG:  Solving for solvent, Initial residual = 0.000677957, Final residual = 5.98481e-06, No Iterations 2
GAMG:  Solving for h, Initial residual = 0.00608273, Final residual = 1.65859e-05, No Iterations 1
T min/max   293.15, 305.427
GAMG:  Solving for p, Initial residual = 0.000972772, Final residual = 0.000972772, No Iterations 0
time step continuity errors : sum local = 0, global = 0, cumulative = 0
GAMG:  Solving for p, Initial residual = 0.000972787, Final residual = 6.09037e-05, No Iterations 3
time step continuity errors : sum local = 0, global = 0, cumulative = 0
PIMPLE: iteration 11
smoothSolver:  Solving for Ux, Initial residual = 0.00518708, Final residual = 1.80887e-07, No Iterations 4
smoothSolver:  Solving for Uy, Initial residual = 0.00433865, Final residual = 2.48047e-07, No Iterations 4
smoothSolver:  Solving for Uz, Initial residual = 0.0156962, Final residual = 2.09472e-07, No Iterations 5
GAMG:  Solving for solute, Initial residual = 0.000663333, Final residual = 5.47983e-06, No Iterations 2
GAMG:  Solving for solvent, Initial residual = 0.000663324, Final residual = 5.47977e-06, No Iterations 2
GAMG:  Solving for h, Initial residual = 0.00380556, Final residual = 1.378e-05, No Iterations 1
T min/max   293.15, 305.426
GAMG:  Solving for p, Initial residual = 0.000784893, Final residual = 0.000784893, No Iterations 0
time step continuity errors : sum local = 0, global = 0, cumulative = 0
GAMG:  Solving for p, Initial residual = 0.000784905, Final residual = 9.79582e-05, No Iterations 1
time step continuity errors : sum local = 0, global = 0, cumulative = 0
PIMPLE: iteration 12
smoothSolver:  Solving for Ux, Initial residual = 0.00411483, Final residual = 1.69253e-07, No Iterations 4
smoothSolver:  Solving for Uy, Initial residual = 0.00390479, Final residual = 2.32241e-07, No Iterations 4
smoothSolver:  Solving for Uz, Initial residual = 0.0143348, Final residual = 1.97646e-07, No Iterations 5
GAMG:  Solving for solute, Initial residual = 0.000805772, Final residual = 2.1285e-06, No Iterations 3
GAMG:  Solving for solvent, Initial residual = 0.00080576, Final residual = 2.12847e-06, No Iterations 3
GAMG:  Solving for h, Initial residual = 0.00248485, Final residual = 1.15342e-05, No Iterations 1
T min/max   293.15, 305.424
GAMG:  Solving for p, Initial residual = 0.000696789, Final residual = 0.000696789, No Iterations 0
time step continuity errors : sum local = 0, global = 0, cumulative = 0
GAMG:  Solving for p, Initial residual = 0.000696802, Final residual = 5.75706e-05, No Iterations 2
time step continuity errors : sum local = 0, global = 0, cumulative = 0
PIMPLE: iteration 13
smoothSolver:  Solving for Ux, Initial residual = 0.00331653, Final residual = 1.59197e-07, No Iterations 4
smoothSolver:  Solving for Uy, Initial residual = 0.00361625, Final residual = 2.16244e-07, No Iterations 4
smoothSolver:  Solving for Uz, Initial residual = 0.0136236, Final residual = 1.88154e-07, No Iterations 5
GAMG:  Solving for solute, Initial residual = 0.00069511, Final residual = 1.66423e-06, No Iterations 3
GAMG:  Solving for solvent, Initial residual = 0.000695101, Final residual = 1.66421e-06, No Iterations 3
GAMG:  Solving for h, Initial residual = 0.00171017, Final residual = 9.84105e-06, No Iterations 1
T min/max   293.15, 305.424
GAMG:  Solving for p, Initial residual = 0.000630667, Final residual = 0.000630667, No Iterations 0
time step continuity errors : sum local = 0, global = 0, cumulative = 0
GAMG:  Solving for p, Initial residual = 0.000630678, Final residual = 6.69768e-05, No Iterations 1
time step continuity errors : sum local = 0, global = 0, cumulative = 0
PIMPLE: iteration 14
smoothSolver:  Solving for Ux, Initial residual = 0.00268834, Final residual = 9.87628e-07, No Iterations 3
smoothSolver:  Solving for Uy, Initial residual = 0.00326131, Final residual = 2.00948e-07, No Iterations 4
smoothSolver:  Solving for Uz, Initial residual = 0.0124568, Final residual = 1.77549e-07, No Iterations 5
GAMG:  Solving for solute, Initial residual = 0.000572914, Final residual = 1.40979e-06, No Iterations 3
GAMG:  Solving for solvent, Initial residual = 0.000572906, Final residual = 1.40977e-06, No Iterations 3
GAMG:  Solving for h, Initial residual = 0.0012319, Final residual = 8.48428e-06, No Iterations 1
T min/max   293.15, 305.424
GAMG:  Solving for p, Initial residual = 0.000545678, Final residual = 0.000545678, No Iterations 0
time step continuity errors : sum local = 0, global = 0, cumulative = 0
GAMG:  Solving for p, Initial residual = 0.000545741, Final residual = 8.12638e-05, No Iterations 1
time step continuity errors : sum local = 0, global = 0, cumulative = 0
PIMPLE: iteration 15
smoothSolver:  Solving for Ux, Initial residual = 0.00221447, Final residual = 9.17057e-07, No Iterations 3
smoothSolver:  Solving for Uy, Initial residual = 0.00297276, Final residual = 1.86521e-07, No Iterations 4
smoothSolver:  Solving for Uz, Initial residual = 0.0115908, Final residual = 1.69189e-07, No Iterations 5
GAMG:  Solving for solute, Initial residual = 0.00038015, Final residual = 1.11267e-06, No Iterations 3
GAMG:  Solving for solvent, Initial residual = 0.000380144, Final residual = 1.11266e-06, No Iterations 3
GAMG:  Solving for h, Initial residual = 0.000942025, Final residual = 7.36423e-06, No Iterations 1
T min/max   293.15, 305.423
GAMG:  Solving for p, Initial residual = 0.000504934, Final residual = 0.000504934, No Iterations 0
time step continuity errors : sum local = 0, global = 0, cumulative = 0
GAMG:  Solving for p, Initial residual = 0.000504993, Final residual = 9.55516e-05, No Iterations 1
time step continuity errors : sum local = 0, global = 0, cumulative = 0
PIMPLE: iteration 16
smoothSolver:  Solving for Ux, Initial residual = 0.00185899, Final residual = 8.54886e-07, No Iterations 3
smoothSolver:  Solving for Uy, Initial residual = 0.00273715, Final residual = 1.73115e-07, No Iterations 4
smoothSolver:  Solving for Uz, Initial residual = 0.0109076, Final residual = 9.68175e-07, No Iterations 4
GAMG:  Solving for solute, Initial residual = 0.000312347, Final residual = 8.83796e-07, No Iterations 3
GAMG:  Solving for solvent, Initial residual = 0.000312343, Final residual = 8.83784e-07, No Iterations 3
GAMG:  Solving for h, Initial residual = 0.000751823, Final residual = 6.46044e-06, No Iterations 1
T min/max   293.15, 305.423
GAMG:  Solving for p, Initial residual = 0.000472319, Final residual = 0.000472319, No Iterations 0
time step continuity errors : sum local = 0, global = 0, cumulative = 0
GAMG:  Solving for p, Initial residual = 0.000472368, Final residual = 9.89798e-05, No Iterations 1
time step continuity errors : sum local = 0, global = 0, cumulative = 0
PIMPLE: iteration 17
smoothSolver:  Solving for Ux, Initial residual = 0.00159715, Final residual = 8.02687e-07, No Iterations 3
smoothSolver:  Solving for Uy, Initial residual = 0.00253739, Final residual = 1.61055e-07, No Iterations 4
smoothSolver:  Solving for Uz, Initial residual = 0.0103267, Final residual = 9.28207e-07, No Iterations 4
GAMG:  Solving for solute, Initial residual = 0.000288728, Final residual = 7.54464e-07, No Iterations 3
GAMG:  Solving for solvent, Initial residual = 0.000288723, Final residual = 7.54454e-07, No Iterations 3
GAMG:  Solving for h, Initial residual = 0.000627134, Final residual = 5.71734e-06, No Iterations 1
T min/max   293.15, 305.423
GAMG:  Solving for p, Initial residual = 0.000438735, Final residual = 0.000438735, No Iterations 0
time step continuity errors : sum local = 0, global = 0, cumulative = 0
GAMG:  Solving for p, Initial residual = 0.00043878, Final residual = 8.98513e-05, No Iterations 1
time step continuity errors : sum local = 0, global = 0, cumulative = 0
PIMPLE: iteration 18
smoothSolver:  Solving for Ux, Initial residual = 0.00139768, Final residual = 7.57509e-07, No Iterations 3
smoothSolver:  Solving for Uy, Initial residual = 0.00235319, Final residual = 1.4957e-07, No Iterations 4
smoothSolver:  Solving for Uz, Initial residual = 0.00972613, Final residual = 8.89003e-07, No Iterations 4
GAMG:  Solving for solute, Initial residual = 0.000271449, Final residual = 7.51551e-07, No Iterations 3
GAMG:  Solving for solvent, Initial residual = 0.000271445, Final residual = 7.51541e-07, No Iterations 3
GAMG:  Solving for h, Initial residual = 0.000534203, Final residual = 5.10393e-06, No Iterations 1
T min/max   293.15, 305.423
GAMG:  Solving for p, Initial residual = 0.000400298, Final residual = 0.000400298, No Iterations 0
time step continuity errors : sum local = 0, global = 0, cumulative = 0
GAMG:  Solving for p, Initial residual = 0.00040034, Final residual = 7.52618e-05, No Iterations 1
time step continuity errors : sum local = 0, global = 0, cumulative = 0
PIMPLE: iteration 19
smoothSolver:  Solving for Ux, Initial residual = 0.00122473, Final residual = 7.11496e-07, No Iterations 3
smoothSolver:  Solving for Uy, Initial residual = 0.00217095, Final residual = 9.49024e-07, No Iterations 3
smoothSolver:  Solving for Uz, Initial residual = 0.00909894, Final residual = 8.47373e-07, No Iterations 4
GAMG:  Solving for solute, Initial residual = 0.000240131, Final residual = 6.8599e-07, No Iterations 3
GAMG:  Solving for solvent, Initial residual = 0.000240128, Final residual = 6.8598e-07, No Iterations 3
GAMG:  Solving for h, Initial residual = 0.000451937, Final residual = 1.56259e-07, No Iterations 2
T min/max   293.15, 305.423
GAMG:  Solving for p, Initial residual = 0.000359306, Final residual = 0.000359306, No Iterations 0
time step continuity errors : sum local = 0, global = 0, cumulative = 0
GAMG:  Solving for p, Initial residual = 0.000359354, Final residual = 6.15213e-05, No Iterations 1
time step continuity errors : sum local = 0, global = 0, cumulative = 0
PIMPLE: iteration 20
smoothSolver:  Solving for Ux, Initial residual = 0.00106541, Final residual = 6.63505e-07, No Iterations 3
smoothSolver:  Solving for Uy, Initial residual = 0.00200426, Final residual = 8.77184e-07, No Iterations 3
smoothSolver:  Solving for Uz, Initial residual = 0.00850281, Final residual = 8.07812e-07, No Iterations 4
GAMG:  Solving for solute, Initial residual = 0.000242004, Final residual = 6.19385e-07, No Iterations 3
GAMG:  Solving for solvent, Initial residual = 0.000242001, Final residual = 6.19377e-07, No Iterations 3
GAMG:  Solving for h, Initial residual = 0.000370625, Final residual = 1.41431e-07, No Iterations 2
T min/max   293.15, 305.423
GAMG:  Solving for p, Initial residual = 0.000322035, Final residual = 0.000322035, No Iterations 0
time step continuity errors : sum local = 0, global = 0, cumulative = 0
GAMG:  Solving for p, Initial residual = 0.000322079, Final residual = 5.43938e-05, No Iterations 1
time step continuity errors : sum local = 0, global = 0, cumulative = 0
PIMPLE: iteration 21
smoothSolver:  Solving for Ux, Initial residual = 0.000933119, Final residual = 6.17498e-07, No Iterations 3
smoothSolver:  Solving for Uy, Initial residual = 0.00186154, Final residual = 8.12991e-07, No Iterations 3
smoothSolver:  Solving for Uz, Initial residual = 0.00797102, Final residual = 7.72841e-07, No Iterations 4
GAMG:  Solving for solute, Initial residual = 0.000187128, Final residual = 5.17773e-07, No Iterations 3
GAMG:  Solving for solvent, Initial residual = 0.000187126, Final residual = 5.17766e-07, No Iterations 3
GAMG:  Solving for h, Initial residual = 0.000308526, Final residual = 1.26713e-07, No Iterations 2
T min/max   293.15, 305.423
GAMG:  Solving for p, Initial residual = 0.000296253, Final residual = 0.000296253, No Iterations 0
time step continuity errors : sum local = 0, global = 0, cumulative = 0
GAMG:  Solving for p, Initial residual = 0.000296289, Final residual = 4.98543e-05, No Iterations 1
time step continuity errors : sum local = 0, global = 0, cumulative = 0
PIMPLE: iteration 22
smoothSolver:  Solving for Ux, Initial residual = 0.000824776, Final residual = 5.75724e-07, No Iterations 3
smoothSolver:  Solving for Uy, Initial residual = 0.00173592, Final residual = 7.56453e-07, No Iterations 3
smoothSolver:  Solving for Uz, Initial residual = 0.0074825, Final residual = 7.40555e-07, No Iterations 4
GAMG:  Solving for solute, Initial residual = 0.000151282, Final residual = 4.27614e-07, No Iterations 3
GAMG:  Solving for solvent, Initial residual = 0.00015128, Final residual = 4.27608e-07, No Iterations 3
GAMG:  Solving for h, Initial residual = 0.000260035, Final residual = 1.1347e-07, No Iterations 2
T min/max   293.15, 305.423
GAMG:  Solving for p, Initial residual = 0.000274407, Final residual = 0.000274407, No Iterations 0
time step continuity errors : sum local = 0, global = 0, cumulative = 0
GAMG:  Solving for p, Initial residual = 0.00027444, Final residual = 4.46195e-05, No Iterations 1
time step continuity errors : sum local = 0, global = 0, cumulative = 0
PIMPLE: iteration 23
smoothSolver:  Solving for Ux, Initial residual = 0.000734944, Final residual = 5.3822e-07, No Iterations 3
smoothSolver:  Solving for Uy, Initial residual = 0.00162393, Final residual = 7.05292e-07, No Iterations 3
smoothSolver:  Solving for Uz, Initial residual = 0.00703107, Final residual = 7.09618e-07, No Iterations 4
GAMG:  Solving for solute, Initial residual = 0.000131896, Final residual = 3.87135e-07, No Iterations 3
GAMG:  Solving for solvent, Initial residual = 0.000131894, Final residual = 3.8713e-07, No Iterations 3
GAMG:  Solving for h, Initial residual = 0.000221755, Final residual = 1.0172e-07, No Iterations 2
T min/max   293.15, 305.423
GAMG:  Solving for p, Initial residual = 0.000252261, Final residual = 0.000252261, No Iterations 0
time step continuity errors : sum local = 0, global = 0, cumulative = 0
GAMG:  Solving for p, Initial residual = 0.00025229, Final residual = 3.95272e-05, No Iterations 1
time step continuity errors : sum local = 0, global = 0, cumulative = 0
PIMPLE: iteration 24
smoothSolver:  Solving for Ux, Initial residual = 0.000658766, Final residual = 5.04103e-07, No Iterations 3
smoothSolver:  Solving for Uy, Initial residual = 0.00152001, Final residual = 6.59617e-07, No Iterations 3
smoothSolver:  Solving for Uz, Initial residual = 0.00660413, Final residual = 6.81082e-07, No Iterations 4
GAMG:  Solving for solute, Initial residual = 0.000121416, Final residual = 3.65826e-07, No Iterations 3
GAMG:  Solving for solvent, Initial residual = 0.000121415, Final residual = 3.65821e-07, No Iterations 3
GAMG:  Solving for h, Initial residual = 0.000191154, Final residual = 9.05686e-08, No Iterations 2
T min/max   293.15, 305.423
GAMG:  Solving for p, Initial residual = 0.00023131, Final residual = 0.00023131, No Iterations 0
time step continuity errors : sum local = 0, global = 0, cumulative = 0
GAMG:  Solving for p, Initial residual = 0.000231337, Final residual = 3.49949e-05, No Iterations 1
time step continuity errors : sum local = 0, global = 0, cumulative = 0
PIMPLE: iteration 25
smoothSolver:  Solving for Ux, Initial residual = 0.000594108, Final residual = 4.71909e-07, No Iterations 3
smoothSolver:  Solving for Uy, Initial residual = 0.001421, Final residual = 6.17251e-07, No Iterations 3
smoothSolver:  Solving for Uz, Initial residual = 0.00619419, Final residual = 6.54006e-07, No Iterations 4
GAMG:  Solving for solute, Initial residual = 0.000107723, Final residual = 3.29773e-07, No Iterations 3
GAMG:  Solving for solvent, Initial residual = 0.000107721, Final residual = 3.29769e-07, No Iterations 3
GAMG:  Solving for h, Initial residual = 0.00016643, Final residual = 8.034e-08, No Iterations 2
T min/max   293.15, 305.423
GAMG:  Solving for p, Initial residual = 0.000212314, Final residual = 0.000212314, No Iterations 0
time step continuity errors : sum local = 0, global = 0, cumulative = 0
GAMG:  Solving for p, Initial residual = 0.000212342, Final residual = 3.22683e-05, No Iterations 1
time step continuity errors : sum local = 0, global = 0, cumulative = 0
PIMPLE: iteration 26
smoothSolver:  Solving for Ux, Initial residual = 0.000540474, Final residual = 4.41271e-07, No Iterations 3
smoothSolver:  Solving for Uy, Initial residual = 0.00132531, Final residual = 5.78145e-07, No Iterations 3
smoothSolver:  Solving for Uz, Initial residual = 0.00579563, Final residual = 6.28896e-07, No Iterations 4
GAMG:  Solving for solute, Initial residual = 8.76871e-05, Final residual = 2.93087e-07, No Iterations 3
GAMG:  Solving for solvent, Initial residual = 8.76857e-05, Final residual = 2.93083e-07, No Iterations 3
GAMG:  Solving for h, Initial residual = 0.000145769, Final residual = 7.09392e-08, No Iterations 2
T min/max   293.15, 305.423
GAMG:  Solving for p, Initial residual = 0.000195721, Final residual = 0.000195721, No Iterations 0
time step continuity errors : sum local = 0, global = 0, cumulative = 0
GAMG:  Solving for p, Initial residual = 0.000195746, Final residual = 3.04191e-05, No Iterations 1
time step continuity errors : sum local = 0, global = 0, cumulative = 0
PIMPLE: iteration 27
smoothSolver:  Solving for Ux, Initial residual = 0.000495297, Final residual = 4.12381e-07, No Iterations 3
smoothSolver:  Solving for Uy, Initial residual = 0.00123648, Final residual = 5.43907e-07, No Iterations 3
smoothSolver:  Solving for Uz, Initial residual = 0.00542929, Final residual = 6.04762e-07, No Iterations 4
GAMG:  Solving for solute, Initial residual = 7.76322e-05, Final residual = 2.69241e-07, No Iterations 3
GAMG:  Solving for solvent, Initial residual = 7.76309e-05, Final residual = 2.69237e-07, No Iterations 3
GAMG:  Solving for h, Initial residual = 0.000125346, Final residual = 6.25578e-08, No Iterations 2
T min/max   293.15, 305.423
GAMG:  Solving for p, Initial residual = 0.000181681, Final residual = 0.000181681, No Iterations 0
time step continuity errors : sum local = 0, global = 0, cumulative = 0
GAMG:  Solving for p, Initial residual = 0.000181706, Final residual = 2.93927e-05, No Iterations 1
time step continuity errors : sum local = 0, global = 0, cumulative = 0
PIMPLE: iteration 28
smoothSolver:  Solving for Ux, Initial residual = 0.000457119, Final residual = 3.8559e-07, No Iterations 3
smoothSolver:  Solving for Uy, Initial residual = 0.0011572, Final residual = 5.14092e-07, No Iterations 3
smoothSolver:  Solving for Uz, Initial residual = 0.00510392, Final residual = 5.81968e-07, No Iterations 4
GAMG:  Solving for solute, Initial residual = 7.02732e-05, Final residual = 2.44864e-07, No Iterations 3
GAMG:  Solving for solvent, Initial residual = 7.02724e-05, Final residual = 2.44861e-07, No Iterations 3
GAMG:  Solving for h, Initial residual = 0.000108506, Final residual = 5.52643e-08, No Iterations 2
T min/max   293.15, 305.423
GAMG:  Solving for p, Initial residual = 0.000170096, Final residual = 0.000170096, No Iterations 0
time step continuity errors : sum local = 0, global = 0, cumulative = 0
GAMG:  Solving for p, Initial residual = 0.000170121, Final residual = 2.78841e-05, No Iterations 1
time step continuity errors : sum local = 0, global = 0, cumulative = 0
PIMPLE: iteration 29
smoothSolver:  Solving for Ux, Initial residual = 0.000423392, Final residual = 3.61064e-07, No Iterations 3
smoothSolver:  Solving for Uy, Initial residual = 0.00108529, Final residual = 4.86779e-07, No Iterations 3
smoothSolver:  Solving for Uz, Initial residual = 0.0048116, Final residual = 5.59949e-07, No Iterations 4
GAMG:  Solving for solute, Initial residual = 6.40246e-05, Final residual = 2.1601e-07, No Iterations 3
GAMG:  Solving for solvent, Initial residual = 6.40237e-05, Final residual = 2.16007e-07, No Iterations 3
GAMG:  Solving for h, Initial residual = 9.34701e-05, Final residual = 4.88735e-08, No Iterations 2
T min/max   293.15, 305.423
GAMG:  Solving for p, Initial residual = 0.000158908, Final residual = 0.000158908, No Iterations 0
time step continuity errors : sum local = 0, global = 0, cumulative = 0
GAMG:  Solving for p, Initial residual = 0.000158932, Final residual = 2.60979e-05, No Iterations 1
time step continuity errors : sum local = 0, global = 0, cumulative = 0
PIMPLE: iteration 30
smoothSolver:  Solving for Ux, Initial residual = 0.000393058, Final residual = 3.39051e-07, No Iterations 3
smoothSolver:  Solving for Uy, Initial residual = 0.00101815, Final residual = 4.6105e-07, No Iterations 3
smoothSolver:  Solving for Uz, Initial residual = 0.00454336, Final residual = 5.38012e-07, No Iterations 4
GAMG:  Solving for solute, Initial residual = 5.74294e-05, Final residual = 1.99063e-07, No Iterations 3
GAMG:  Solving for solvent, Initial residual = 5.74286e-05, Final residual = 1.9906e-07, No Iterations 3
GAMG:  Solving for h, Initial residual = 8.08569e-05, Final residual = 4.30217e-08, No Iterations 2
T min/max   293.15, 305.423
GAMG:  Solving for p, Initial residual = 0.000147853, Final residual = 0.000147853, No Iterations 0
time step continuity errors : sum local = 0, global = 0, cumulative = 0
GAMG:  Solving for p, Initial residual = 0.000147875, Final residual = 2.40765e-05, No Iterations 1
time step continuity errors : sum local = 0, global = 0, cumulative = 0
PIMPLE: iteration 31
smoothSolver:  Solving for Ux, Initial residual = 0.000365513, Final residual = 3.18772e-07, No Iterations 3
smoothSolver:  Solving for Uy, Initial residual = 0.000953861, Final residual = 4.37237e-07, No Iterations 3
smoothSolver:  Solving for Uz, Initial residual = 0.00428331, Final residual = 5.16345e-07, No Iterations 4
GAMG:  Solving for solute, Initial residual = 5.2631e-05, Final residual = 1.84127e-07, No Iterations 3
GAMG:  Solving for solvent, Initial residual = 5.26304e-05, Final residual = 1.84125e-07, No Iterations 3
GAMG:  Solving for h, Initial residual = 7.06542e-05, Final residual = 3.80472e-08, No Iterations 2
T min/max   293.15, 305.423
GAMG:  Solving for p, Initial residual = 0.000137391, Final residual = 0.000137391, No Iterations 0
time step continuity errors : sum local = 0, global = 0, cumulative = 0
GAMG:  Solving for p, Initial residual = 0.000137412, Final residual = 2.17712e-05, No Iterations 1
time step continuity errors : sum local = 0, global = 0, cumulative = 0
PIMPLE: iteration 32
smoothSolver:  Solving for Ux, Initial residual = 0.000340295, Final residual = 2.99367e-07, No Iterations 3
smoothSolver:  Solving for Uy, Initial residual = 0.000892455, Final residual = 4.14587e-07, No Iterations 3
smoothSolver:  Solving for Uz, Initial residual = 0.00403057, Final residual = 4.95465e-07, No Iterations 4
GAMG:  Solving for solute, Initial residual = 4.80199e-05, Final residual = 1.72216e-07, No Iterations 3
GAMG:  Solving for solvent, Initial residual = 4.80193e-05, Final residual = 1.72214e-07, No Iterations 3
GAMG:  Solving for h, Initial residual = 6.17644e-05, Final residual = 3.38111e-08, No Iterations 2
T min/max   293.15, 305.423
GAMG:  Solving for p, Initial residual = 0.000127102, Final residual = 0.000127102, No Iterations 0
time step continuity errors : sum local = 0, global = 0, cumulative = 0
GAMG:  Solving for p, Initial residual = 0.000127122, Final residual = 1.96876e-05, No Iterations 1
time step continuity errors : sum local = 0, global = 0, cumulative = 0
PIMPLE: iteration 33
smoothSolver:  Solving for Ux, Initial residual = 0.000316811, Final residual = 2.80586e-07, No Iterations 3
smoothSolver:  Solving for Uy, Initial residual = 0.000834423, Final residual = 3.93048e-07, No Iterations 3
smoothSolver:  Solving for Uz, Initial residual = 0.00378852, Final residual = 4.74564e-07, No Iterations 4
GAMG:  Solving for solute, Initial residual = 4.35965e-05, Final residual = 1.61591e-07, No Iterations 3
GAMG:  Solving for solvent, Initial residual = 4.35959e-05, Final residual = 1.61589e-07, No Iterations 3
GAMG:  Solving for h, Initial residual = 5.35923e-05, Final residual = 2.99941e-08, No Iterations 2
T min/max   293.15, 305.423
GAMG:  Solving for p, Initial residual = 0.000117869, Final residual = 0.000117869, No Iterations 0
time step continuity errors : sum local = 0, global = 0, cumulative = 0
GAMG:  Solving for p, Initial residual = 0.00011789, Final residual = 1.80057e-05, No Iterations 1
time step continuity errors : sum local = 0, global = 0, cumulative = 0
PIMPLE: iteration 34
smoothSolver:  Solving for Ux, Initial residual = 0.000294692, Final residual = 2.62643e-07, No Iterations 3
smoothSolver:  Solving for Uy, Initial residual = 0.000780725, Final residual = 3.7272e-07, No Iterations 3
smoothSolver:  Solving for Uz, Initial residual = 0.00356081, Final residual = 4.53867e-07, No Iterations 4
GAMG:  Solving for solute, Initial residual = 3.85963e-05, Final residual = 1.47884e-07, No Iterations 3
GAMG:  Solving for solvent, Initial residual = 3.85957e-05, Final residual = 1.47882e-07, No Iterations 3
GAMG:  Solving for h, Initial residual = 4.62644e-05, Final residual = 2.66659e-08, No Iterations 2
T min/max   293.15, 305.423
GAMG:  Solving for p, Initial residual = 0.000110134, Final residual = 0.000110134, No Iterations 0
time step continuity errors : sum local = 0, global = 0, cumulative = 0
GAMG:  Solving for p, Initial residual = 0.000110155, Final residual = 1.67733e-05, No Iterations 1
time step continuity errors : sum local = 0, global = 0, cumulative = 0
PIMPLE: iteration 35
smoothSolver:  Solving for Ux, Initial residual = 0.000274384, Final residual = 2.45732e-07, No Iterations 3
smoothSolver:  Solving for Uy, Initial residual = 0.000731205, Final residual = 3.53946e-07, No Iterations 3
smoothSolver:  Solving for Uz, Initial residual = 0.00334623, Final residual = 4.3376e-07, No Iterations 4
GAMG:  Solving for solute, Initial residual = 3.31239e-05, Final residual = 1.30337e-07, No Iterations 3
GAMG:  Solving for solvent, Initial residual = 3.31233e-05, Final residual = 1.30336e-07, No Iterations 3
GAMG:  Solving for h, Initial residual = 4.01744e-05, Final residual = 2.36989e-08, No Iterations 2
T min/max   293.15, 305.423
GAMG:  Solving for p, Initial residual = 0.000103262, Final residual = 0.000103262, No Iterations 0
time step continuity errors : sum local = 0, global = 0, cumulative = 0
GAMG:  Solving for p, Initial residual = 0.000103281, Final residual = 1.5636e-05, No Iterations 1
time step continuity errors : sum local = 0, global = 0, cumulative = 0
PIMPLE: iteration 36
smoothSolver:  Solving for Ux, Initial residual = 0.000255938, Final residual = 2.30099e-07, No Iterations 3
smoothSolver:  Solving for Uy, Initial residual = 0.000685196, Final residual = 3.36396e-07, No Iterations 3
smoothSolver:  Solving for Uz, Initial residual = 0.00314779, Final residual = 4.14498e-07, No Iterations 4
GAMG:  Solving for solute, Initial residual = 3.02422e-05, Final residual = 1.21639e-07, No Iterations 3
GAMG:  Solving for solvent, Initial residual = 3.02418e-05, Final residual = 1.21637e-07, No Iterations 3
GAMG:  Solving for h, Initial residual = 3.53015e-05, Final residual = 2.11654e-08, No Iterations 2
T min/max   293.15, 305.423
GAMG:  Solving for p, Initial residual = 9.68742e-05, Final residual = 9.68742e-05, No Iterations 0
time step continuity errors : sum local = 0, global = 0, cumulative = 0
GAMG:  Solving for p, Initial residual = 9.68921e-05, Final residual = 9.68921e-05, No Iterations 0
time step continuity errors : sum local = 0, global = 0, cumulative = 0
PIMPLE: iteration 37
smoothSolver:  Solving for Ux, Initial residual = 0.000232967, Final residual = 2.17855e-07, No Iterations 3
smoothSolver:  Solving for Uy, Initial residual = 0.000634442, Final residual = 3.16113e-07, No Iterations 3
smoothSolver:  Solving for Uz, Initial residual = 0.00288133, Final residual = 3.92838e-07, No Iterations 4
GAMG:  Solving for solute, Initial residual = 0.000649517, Final residual = 1.12213e-06, No Iterations 3
GAMG:  Solving for solvent, Initial residual = 0.000649508, Final residual = 1.12211e-06, No Iterations 3
GAMG:  Solving for h, Initial residual = 4.73822e-05, Final residual = 3.98798e-08, No Iterations 2
T min/max   293.15, 305.423
GAMG:  Solving for p, Initial residual = 0.000171744, Final residual = 0.000171744, No Iterations 0
time step continuity errors : sum local = 0, global = 0, cumulative = 0
GAMG:  Solving for p, Initial residual = 0.000171762, Final residual = 2.66418e-05, No Iterations 1
time step continuity errors : sum local = 0, global = 0, cumulative = 0
PIMPLE: iteration 38
smoothSolver:  Solving for Ux, Initial residual = 0.000223918, Final residual = 1.99894e-07, No Iterations 3
smoothSolver:  Solving for Uy, Initial residual = 0.000600837, Final residual = 3.02301e-07, No Iterations 3
smoothSolver:  Solving for Uz, Initial residual = 0.00282004, Final residual = 3.79311e-07, No Iterations 4
GAMG:  Solving for solute, Initial residual = 0.000636668, Final residual = 5.55733e-06, No Iterations 2
GAMG:  Solving for solvent, Initial residual = 0.00063666, Final residual = 5.55726e-06, No Iterations 2
GAMG:  Solving for h, Initial residual = 3.94238e-05, Final residual = 3.29869e-08, No Iterations 2
T min/max   293.15, 305.423
GAMG:  Solving for p, Initial residual = 0.000107487, Final residual = 0.000107487, No Iterations 0
time step continuity errors : sum local = 0, global = 0, cumulative = 0
GAMG:  Solving for p, Initial residual = 0.0001075, Final residual = 1.68681e-05, No Iterations 1
time step continuity errors : sum local = 0, global = 0, cumulative = 0
PIMPLE: iteration 39
smoothSolver:  Solving for Ux, Initial residual = 0.000212798, Final residual = 1.87475e-07, No Iterations 3
smoothSolver:  Solving for Uy, Initial residual = 0.000573756, Final residual = 2.90934e-07, No Iterations 3
smoothSolver:  Solving for Uz, Initial residual = 0.00268353, Final residual = 3.6358e-07, No Iterations 4
GAMG:  Solving for solute, Initial residual = 0.000132631, Final residual = 4.52188e-07, No Iterations 3
GAMG:  Solving for solvent, Initial residual = 0.000132629, Final residual = 4.52182e-07, No Iterations 3
GAMG:  Solving for h, Initial residual = 2.72774e-05, Final residual = 1.86163e-08, No Iterations 2
T min/max   293.15, 305.423
GAMG:  Solving for p, Initial residual = 8.58196e-05, Final residual = 8.58196e-05, No Iterations 0
time step continuity errors : sum local = 0, global = 0, cumulative = 0
GAMG:  Solving for p, Initial residual = 8.5831e-05, Final residual = 8.5831e-05, No Iterations 0
time step continuity errors : sum local = 0, global = 0, cumulative = 0
PIMPLE: iteration 40
smoothSolver:  Solving for Ux, Initial residual = 0.000193317, Final residual = 1.77576e-07, No Iterations 3
smoothSolver:  Solving for Uy, Initial residual = 0.000528627, Final residual = 2.7246e-07, No Iterations 3
smoothSolver:  Solving for Uz, Initial residual = 0.00244539, Final residual = 3.44014e-07, No Iterations 4
GAMG:  Solving for solute, Initial residual = 0.00057026, Final residual = 4.70571e-06, No Iterations 2
GAMG:  Solving for solvent, Initial residual = 0.000570253, Final residual = 4.70564e-06, No Iterations 2
GAMG:  Solving for h, Initial residual = 3.66336e-05, Final residual = 3.37206e-08, No Iterations 2
T min/max   293.15, 305.423
GAMG:  Solving for p, Initial residual = 0.000140875, Final residual = 0.000140875, No Iterations 0
time step continuity errors : sum local = 0, global = 0, cumulative = 0
GAMG:  Solving for p, Initial residual = 0.000140889, Final residual = 1.5351e-05, No Iterations 1
time step continuity errors : sum local = 0, global = 0, cumulative = 0
PIMPLE: iteration 41
smoothSolver:  Solving for Ux, Initial residual = 0.000181555, Final residual = 1.65503e-07, No Iterations 3
smoothSolver:  Solving for Uy, Initial residual = 0.000492698, Final residual = 2.54998e-07, No Iterations 3
smoothSolver:  Solving for Uz, Initial residual = 0.00230996, Final residual = 3.24549e-07, No Iterations 4
GAMG:  Solving for solute, Initial residual = 0.000570744, Final residual = 4.45742e-06, No Iterations 2
GAMG:  Solving for solvent, Initial residual = 0.000570737, Final residual = 4.45736e-06, No Iterations 2
GAMG:  Solving for h, Initial residual = 3.07733e-05, Final residual = 2.84847e-08, No Iterations 2
T min/max   293.15, 305.423
GAMG:  Solving for p, Initial residual = 8.24281e-05, Final residual = 8.24281e-05, No Iterations 0
time step continuity errors : sum local = 0, global = 0, cumulative = 0
GAMG:  Solving for p, Initial residual = 8.24409e-05, Final residual = 8.24409e-05, No Iterations 0
time step continuity errors : sum local = 0, global = 0, cumulative = 0
PIMPLE: iteration 42
smoothSolver:  Solving for Ux, Initial residual = 0.000165429, Final residual = 1.57017e-07, No Iterations 3
smoothSolver:  Solving for Uy, Initial residual = 0.000454196, Final residual = 2.39178e-07, No Iterations 3
smoothSolver:  Solving for Uz, Initial residual = 0.00210944, Final residual = 3.06484e-07, No Iterations 4
GAMG:  Solving for solute, Initial residual = 0.000543121, Final residual = 9.26387e-07, No Iterations 3
GAMG:  Solving for solvent, Initial residual = 0.000543114, Final residual = 9.26375e-07, No Iterations 3
GAMG:  Solving for h, Initial residual = 2.91259e-05, Final residual = 2.85096e-08, No Iterations 2
T min/max   293.15, 305.423
GAMG:  Solving for p, Initial residual = 0.000131421, Final residual = 0.000131421, No Iterations 0
time step continuity errors : sum local = 0, global = 0, cumulative = 0
GAMG:  Solving for p, Initial residual = 0.000131435, Final residual = 2.06081e-05, No Iterations 1
time step continuity errors : sum local = 0, global = 0, cumulative = 0
PIMPLE: iteration 43
smoothSolver:  Solving for Ux, Initial residual = 0.00016024, Final residual = 1.42068e-07, No Iterations 3
smoothSolver:  Solving for Uy, Initial residual = 0.000434915, Final residual = 2.30091e-07, No Iterations 3
smoothSolver:  Solving for Uz, Initial residual = 0.00207311, Final residual = 2.95669e-07, No Iterations 4
GAMG:  Solving for solute, Initial residual = 0.000542954, Final residual = 4.92246e-06, No Iterations 2
GAMG:  Solving for solvent, Initial residual = 0.000542947, Final residual = 4.92239e-06, No Iterations 2
GAMG:  Solving for h, Initial residual = 2.77963e-05, Final residual = 2.80209e-08, No Iterations 2
T min/max   293.15, 305.423
GAMG:  Solving for p, Initial residual = 8.28305e-05, Final residual = 8.28305e-05, No Iterations 0
time step continuity errors : sum local = 0, global = 0, cumulative = 0
GAMG:  Solving for p, Initial residual = 8.28405e-05, Final residual = 8.28405e-05, No Iterations 0
time step continuity errors : sum local = 0, global = 0, cumulative = 0
PIMPLE: iteration 44
smoothSolver:  Solving for Ux, Initial residual = 0.000145782, Final residual = 9.93767e-07, No Iterations 2
smoothSolver:  Solving for Uy, Initial residual = 0.000399161, Final residual = 2.15242e-07, No Iterations 3
smoothSolver:  Solving for Uz, Initial residual = 0.00188731, Final residual = 2.78554e-07, No Iterations 4
GAMG:  Solving for solute, Initial residual = 0.000538588, Final residual = 4.48024e-06, No Iterations 2
GAMG:  Solving for solvent, Initial residual = 0.000538581, Final residual = 4.48018e-06, No Iterations 2
GAMG:  Solving for h, Initial residual = 2.73458e-05, Final residual = 2.75957e-08, No Iterations 2
T min/max   293.15, 305.423
GAMG:  Solving for p, Initial residual = 0.00012299, Final residual = 0.00012299, No Iterations 0
time step continuity errors : sum local = 0, global = 0, cumulative = 0
GAMG:  Solving for p, Initial residual = 0.000123043, Final residual = 1.7333e-05, No Iterations 1
time step continuity errors : sum local = 0, global = 0, cumulative = 0
PIMPLE: iteration 45
smoothSolver:  Solving for Ux, Initial residual = 0.000141296, Final residual = 9.29075e-07, No Iterations 2
smoothSolver:  Solving for Uy, Initial residual = 0.000382728, Final residual = 2.05572e-07, No Iterations 3
smoothSolver:  Solving for Uz, Initial residual = 0.00182601, Final residual = 2.63684e-07, No Iterations 4
GAMG:  Solving for solute, Initial residual = 0.000546235, Final residual = 4.73169e-06, No Iterations 2
GAMG:  Solving for solvent, Initial residual = 0.000546228, Final residual = 4.73162e-06, No Iterations 2
GAMG:  Solving for h, Initial residual = 2.64645e-05, Final residual = 2.68453e-08, No Iterations 2
T min/max   293.15, 305.423
GAMG:  Solving for p, Initial residual = 7.05372e-05, Final residual = 7.05372e-05, No Iterations 0
time step continuity errors : sum local = 0, global = 0, cumulative = 0
GAMG:  Solving for p, Initial residual = 7.05786e-05, Final residual = 7.05786e-05, No Iterations 0
time step continuity errors : sum local = 0, global = 0, cumulative = 0
PIMPLE: iteration 46
smoothSolver:  Solving for Ux, Initial residual = 0.000128435, Final residual = 8.75266e-07, No Iterations 2
smoothSolver:  Solving for Uy, Initial residual = 0.000350647, Final residual = 1.92289e-07, No Iterations 3
smoothSolver:  Solving for Uz, Initial residual = 0.00166031, Final residual = 2.47969e-07, No Iterations 4
GAMG:  Solving for solute, Initial residual = 0.000460601, Final residual = 3.93455e-06, No Iterations 2
GAMG:  Solving for solvent, Initial residual = 0.000460595, Final residual = 3.9345e-06, No Iterations 2
GAMG:  Solving for h, Initial residual = 2.24725e-05, Final residual = 2.26459e-08, No Iterations 2
T min/max   293.15, 305.423
GAMG:  Solving for p, Initial residual = 0.000105352, Final residual = 0.000105352, No Iterations 0
time step continuity errors : sum local = 0, global = 0, cumulative = 0
GAMG:  Solving for p, Initial residual = 0.000105403, Final residual = 1.3914e-05, No Iterations 1
time step continuity errors : sum local = 0, global = 0, cumulative = 0
PIMPLE: iteration 47
smoothSolver:  Solving for Ux, Initial residual = 0.000123293, Final residual = 8.16482e-07, No Iterations 2
smoothSolver:  Solving for Uy, Initial residual = 0.000334114, Final residual = 1.83326e-07, No Iterations 3
smoothSolver:  Solving for Uz, Initial residual = 0.00160173, Final residual = 2.3657e-07, No Iterations 4
GAMG:  Solving for solute, Initial residual = 0.000466024, Final residual = 3.93113e-06, No Iterations 2
GAMG:  Solving for solvent, Initial residual = 0.000466018, Final residual = 3.93108e-06, No Iterations 2
GAMG:  Solving for h, Initial residual = 2.19846e-05, Final residual = 2.34301e-08, No Iterations 2
T min/max   293.15, 305.423
GAMG:  Solving for p, Initial residual = 6.22344e-05, Final residual = 6.22344e-05, No Iterations 0
time step continuity errors : sum local = 0, global = 0, cumulative = 0
GAMG:  Solving for p, Initial residual = 6.2281e-05, Final residual = 6.2281e-05, No Iterations 0
time step continuity errors : sum local = 0, global = 0, cumulative = 0
PIMPLE: iteration 48
smoothSolver:  Solving for Ux, Initial residual = 0.0001121, Final residual = 7.69043e-07, No Iterations 2
smoothSolver:  Solving for Uy, Initial residual = 0.000305689, Final residual = 1.71425e-07, No Iterations 3
smoothSolver:  Solving for Uz, Initial residual = 0.00145691, Final residual = 2.2202e-07, No Iterations 4
GAMG:  Solving for solute, Initial residual = 0.000410704, Final residual = 3.453e-06, No Iterations 2
GAMG:  Solving for solvent, Initial residual = 0.000410699, Final residual = 3.45296e-06, No Iterations 2
GAMG:  Solving for h, Initial residual = 1.92106e-05, Final residual = 1.91915e-08, No Iterations 2
T min/max   293.15, 305.423
GAMG:  Solving for p, Initial residual = 9.35922e-05, Final residual = 9.35922e-05, No Iterations 0
time step continuity errors : sum local = 0, global = 0, cumulative = 0
GAMG:  Solving for p, Initial residual = 9.36469e-05, Final residual = 9.36469e-05, No Iterations 0
time step continuity errors : sum local = 0, global = 0, cumulative = 0
PIMPLE: iteration 49
smoothSolver:  Solving for Ux, Initial residual = 0.000102386, Final residual = 7.24749e-07, No Iterations 2
smoothSolver:  Solving for Uy, Initial residual = 0.000281731, Final residual = 1.6067e-07, No Iterations 3
smoothSolver:  Solving for Uz, Initial residual = 0.00133281, Final residual = 2.08296e-07, No Iterations 4
GAMG:  Solving for solute, Initial residual = 0.000261103, Final residual = 5.94341e-07, No Iterations 3
GAMG:  Solving for solvent, Initial residual = 0.0002611, Final residual = 5.94333e-07, No Iterations 3
GAMG:  Solving for h, Initial residual = 1.89121e-05, Final residual = 1.85693e-08, No Iterations 2
T min/max   293.15, 305.423
GAMG:  Solving for p, Initial residual = 0.000129325, Final residual = 0.000129325, No Iterations 0
time step continuity errors : sum local = 0, global = 0, cumulative = 0
GAMG:  Solving for p, Initial residual = 0.00012938, Final residual = 1.85025e-05, No Iterations 1
time step continuity errors : sum local = 0, global = 0, cumulative = 0
PIMPLE: iteration 50
smoothSolver:  Solving for Ux, Initial residual = 0.000102509, Final residual = 6.62186e-07, No Iterations 2
smoothSolver:  Solving for Uy, Initial residual = 0.000272831, Final residual = 1.5421e-07, No Iterations 3
smoothSolver:  Solving for Uz, Initial residual = 0.00135558, Final residual = 1.97271e-07, No Iterations 4
GAMG:  Solving for solute, Initial residual = 0.000624186, Final residual = 5.54867e-06, No Iterations 2
GAMG:  Solving for solvent, Initial residual = 0.000624177, Final residual = 5.54859e-06, No Iterations 2
GAMG:  Solving for h, Initial residual = 2.8454e-05, Final residual = 3.09168e-08, No Iterations 2
T min/max   293.15, 305.423
GAMG:  Solving for p, Initial residual = 6.60768e-05, Final residual = 6.60768e-05, No Iterations 0
time step continuity errors : sum local = 0, global = 0, cumulative = 0
GAMG:  Solving for p, Initial residual = 6.60961e-05, Final residual = 6.60961e-05, No Iterations 0
time step continuity errors : sum local = 0, global = 0, cumulative = 0
PIMPLE: iteration 51
smoothSolver:  Solving for Ux, Initial residual = 9.278e-05, Final residual = 6.23411e-07, No Iterations 2
smoothSolver:  Solving for Uy, Initial residual = 0.000247806, Final residual = 1.4397e-07, No Iterations 3
smoothSolver:  Solving for Uz, Initial residual = 0.00122452, Final residual = 1.8465e-07, No Iterations 4
GAMG:  Solving for solute, Initial residual = 0.000425027, Final residual = 3.72795e-06, No Iterations 2
GAMG:  Solving for solvent, Initial residual = 0.000425022, Final residual = 3.7279e-06, No Iterations 2
GAMG:  Solving for h, Initial residual = 1.91173e-05, Final residual = 2.03959e-08, No Iterations 2
T min/max   293.15, 305.423
GAMG:  Solving for p, Initial residual = 9.03638e-05, Final residual = 9.03638e-05, No Iterations 0
time step continuity errors : sum local = 0, global = 0, cumulative = 0
GAMG:  Solving for p, Initial residual = 9.03873e-05, Final residual = 9.03873e-05, No Iterations 0
time step continuity errors : sum local = 0, global = 0, cumulative = 0
PIMPLE: iteration 52
smoothSolver:  Solving for Ux, Initial residual = 8.44523e-05, Final residual = 5.87167e-07, No Iterations 2
smoothSolver:  Solving for Uy, Initial residual = 0.000228069, Final residual = 1.34715e-07, No Iterations 3
smoothSolver:  Solving for Uz, Initial residual = 0.00111419, Final residual = 1.72855e-07, No Iterations 4
GAMG:  Solving for solute, Initial residual = 0.000217238, Final residual = 4.26304e-07, No Iterations 3
GAMG:  Solving for solvent, Initial residual = 0.000217235, Final residual = 4.26298e-07, No Iterations 3
GAMG:  Solving for h, Initial residual = 1.65868e-05, Final residual = 1.81418e-08, No Iterations 2
T min/max   293.15, 305.423
GAMG:  Solving for p, Initial residual = 0.000115626, Final residual = 0.000115626, No Iterations 0
time step continuity errors : sum local = 0, global = 0, cumulative = 0
GAMG:  Solving for p, Initial residual = 0.000115659, Final residual = 1.59262e-05, No Iterations 1
time step continuity errors : sum local = 0, global = 0, cumulative = 0
PIMPLE: iteration 53
smoothSolver:  Solving for Ux, Initial residual = 8.5193e-05, Final residual = 5.52488e-07, No Iterations 2
smoothSolver:  Solving for Uy, Initial residual = 0.000226739, Final residual = 1.32473e-07, No Iterations 3
smoothSolver:  Solving for Uz, Initial residual = 0.00112026, Final residual = 1.67746e-07, No Iterations 4
GAMG:  Solving for solute, Initial residual = 0.000600119, Final residual = 5.35053e-06, No Iterations 2
GAMG:  Solving for solvent, Initial residual = 0.000600111, Final residual = 5.35046e-06, No Iterations 2
GAMG:  Solving for h, Initial residual = 2.68975e-05, Final residual = 2.97659e-08, No Iterations 2
T min/max   293.15, 305.423
GAMG:  Solving for p, Initial residual = 6.21761e-05, Final residual = 6.21761e-05, No Iterations 0
time step continuity errors : sum local = 0, global = 0, cumulative = 0
GAMG:  Solving for p, Initial residual = 6.22031e-05, Final residual = 6.22031e-05, No Iterations 0
time step continuity errors : sum local = 0, global = 0, cumulative = 0
PIMPLE: iteration 54
smoothSolver:  Solving for Ux, Initial residual = 7.69296e-05, Final residual = 5.19168e-07, No Iterations 2
smoothSolver:  Solving for Uy, Initial residual = 0.000204595, Final residual = 1.23801e-07, No Iterations 3
smoothSolver:  Solving for Uz, Initial residual = 0.00101143, Final residual = 9.79134e-07, No Iterations 3
GAMG:  Solving for solute, Initial residual = 0.000409074, Final residual = 6.94397e-07, No Iterations 3
GAMG:  Solving for solvent, Initial residual = 0.000409068, Final residual = 6.94388e-07, No Iterations 3
GAMG:  Solving for h, Initial residual = 1.88797e-05, Final residual = 2.00893e-08, No Iterations 2
T min/max   293.15, 305.423
GAMG:  Solving for p, Initial residual = 8.97342e-05, Final residual = 8.97342e-05, No Iterations 0
time step continuity errors : sum local = 0, global = 0, cumulative = 0
GAMG:  Solving for p, Initial residual = 8.97654e-05, Final residual = 8.97654e-05, No Iterations 0
time step continuity errors : sum local = 0, global = 0, cumulative = 0
PIMPLE: iteration 55
smoothSolver:  Solving for Ux, Initial residual = 6.98822e-05, Final residual = 4.88052e-07, No Iterations 2
smoothSolver:  Solving for Uy, Initial residual = 0.000187706, Final residual = 9.36103e-07, No Iterations 2
smoothSolver:  Solving for Uz, Initial residual = 0.000919887, Final residual = 9.13406e-07, No Iterations 3
GAMG:  Solving for solute, Initial residual = 0.00024414, Final residual = 6.6536e-07, No Iterations 3
GAMG:  Solving for solvent, Initial residual = 0.000244137, Final residual = 6.65351e-07, No Iterations 3
GAMG:  Solving for h, Initial residual = 1.86919e-05, Final residual = 2.03514e-08, No Iterations 2
T min/max   293.15, 305.423
GAMG:  Solving for p, Initial residual = 0.00011808, Final residual = 0.00011808, No Iterations 0
time step continuity errors : sum local = 0, global = 0, cumulative = 0
GAMG:  Solving for p, Initial residual = 0.000118122, Final residual = 1.61633e-05, No Iterations 1
time step continuity errors : sum local = 0, global = 0, cumulative = 0
PIMPLE: iteration 56
smoothSolver:  Solving for Ux, Initial residual = 0.000294797, Final residual = 8.39998e-07, No Iterations 19
smoothSolver:  Solving for Uy, Initial residual = 0.00079368, Final residual = 9.48874e-07, No Iterations 19
smoothSolver:  Solving for Uz, Initial residual = 0.00769736, Final residual = 8.54735e-07, No Iterations 31
GAMG:  Solving for solute, Initial residual = 0.00059364, Final residual = 9.72481e-07, No Iterations 3
GAMG:  Solving for solvent, Initial residual = 0.000593633, Final residual = 9.72468e-07, No Iterations 3
GAMG:  Solving for h, Initial residual = 5.42864e-05, Final residual = 3.70906e-09, No Iterations 5
T min/max   293.15, 305.423
GAMG:  Solving for p, Initial residual = 0.00668957, Final residual = 0.000533384, No Iterations 2
time step continuity errors : sum local = 0, global = 0, cumulative = 0
GAMG:  Solving for p, Initial residual = 0.00191008, Final residual = 9.94042e-05, No Iterations 2
time step continuity errors : sum local = 0, global = 0, cumulative = 0
smoothSolver:  Solving for epsilon, Initial residual = 0.117639, Final residual = 8.28585e-07, No Iterations 21
smoothSolver:  Solving for k, Initial residual = 1, Final residual = 8.27606e-07, No Iterations 35
PIMPLE: converged in 56 iterations
ExecutionTime = 11.35 s  ClockTime = 11 s

Courant Number mean: 0.000368293 max: 0.0455304
Time = 0.002

Evolving kinematicCloud

Solving 3-D cloud kinematicCloud

Cloud: kinematicCloud injector: model
    Added 100 new parcels

Cloud: kinematicCloud
    Current number of parcels       = 200
    Current mass in system          = 2.21683e-08
    Linear momentum                 = (1.22412e-08 -5.45524e-11 4.20438e-13)
   |Linear momentum|                = 1.22413e-08
    Linear kinetic energy           = 3.41417e-09
    model:
        number of parcels added     = 200
        mass introduced             = 0
    Parcel fate (number, mass)      : patch frontAndBack
      - escape                      = 0, 0
      - stick                       = 0, 0
    Parcel fate (number, mass)      : patch walls
      - escape                      = 0, 0
      - stick                       = 0, 0
    Parcel fate (number, mass)      : patch sup_side_inlet|inf_side_inlet|solution_inlet|outlet
      - escape                      = 0, 0
      - stick                       = 0, 0
    Min cell volume fraction        = 0
    Max cell volume fraction        = 4.03902e-05
    Min dense number of parcels     = 1.06526

PIMPLE: iteration 1
smoothSolver:  Solving for Ux, Initial residual = 0.504805, Final residual = 8.9375e-07, No Iterations 4
smoothSolver:  Solving for Uy, Initial residual = 0.045549, Final residual = 5.1756e-07, No Iterations 4
smoothSolver:  Solving for Uz, Initial residual = 0.0512356, Final residual = 4.32703e-07, No Iterations 5
GAMG:  Solving for solute, Initial residual = 0.0462533, Final residual = 0.000120946, No Iterations 2
GAMG:  Solving for solvent, Initial residual = 0.0461888, Final residual = 0.000120867, No Iterations 2
GAMG:  Solving for h, Initial residual = 0.387192, Final residual = 0.000181167, No Iterations 1
T min/max   293.15, 305.717
GAMG:  Solving for p, Initial residual = 0.0179006, Final residual = 0.00097104, No Iterations 36
time step continuity errors : sum local = 0, global = 0, cumulative = 0
GAMG:  Solving for p, Initial residual = 0.0669787, Final residual = 8.87207e-05, No Iterations 68
time step continuity errors : sum local = 0, global = 0, cumulative = 0
PIMPLE: iteration 2
smoothSolver:  Solving for Ux, Initial residual = 0.116132, Final residual = 3.43804e-07, No Iterations 4
smoothSolver:  Solving for Uy, Initial residual = 0.0251568, Final residual = 2.85164e-07, No Iterations 4
smoothSolver:  Solving for Uz, Initial residual = 0.0321231, Final residual = 2.34996e-07, No Iterations 5
GAMG:  Solving for solute, Initial residual = 0.00510004, Final residual = 2.68585e-05, No Iterations 2
GAMG:  Solving for solvent, Initial residual = 0.00509986, Final residual = 2.68575e-05, No Iterations 2
GAMG:  Solving for h, Initial residual = 0.388249, Final residual = 0.00021715, No Iterations 1
T min/max   293.15, 305.718
GAMG:  Solving for p, Initial residual = 0.0276529, Final residual = 0.00130157, No Iterations 40
time step continuity errors : sum local = 0, global = 0, cumulative = 0
GAMG:  Solving for p, Initial residual = 0.0425097, Final residual = 8.78406e-05, No Iterations 58
time step continuity errors : sum local = 0, global = 0, cumulative = 0
PIMPLE: iteration 3
smoothSolver:  Solving for Ux, Initial residual = 0.10229, Final residual = 2.53757e-07, No Iterations 4
smoothSolver:  Solving for Uy, Initial residual = 0.0118782, Final residual = 1.91704e-07, No Iterations 4
smoothSolver:  Solving for Uz, Initial residual = 0.0223866, Final residual = 7.6319e-07, No Iterations 4
GAMG:  Solving for solute, Initial residual = 0.000475754, Final residual = 1.95784e-06, No Iterations 3
GAMG:  Solving for solvent, Initial residual = 0.000475669, Final residual = 1.95778e-06, No Iterations 3
GAMG:  Solving for h, Initial residual = 0.362452, Final residual = 0.000127264, No Iterations 1
T min/max   293.15, 305.735
GAMG:  Solving for p, Initial residual = 0.0297153, Final residual = 0.0013766, No Iterations 20
time step continuity errors : sum local = 0, global = 0, cumulative = 0
GAMG:  Solving for p, Initial residual = 0.0191295, Final residual = 9.01514e-05, No Iterations 48
time step continuity errors : sum local = 0, global = 0, cumulative = 0
PIMPLE: iteration 4
smoothSolver:  Solving for Ux, Initial residual = 0.0464327, Final residual = 1.4278e-07, No Iterations 4
smoothSolver:  Solving for Uy, Initial residual = 0.00708969, Final residual = 1.64387e-07, No Iterations 4
smoothSolver:  Solving for Uz, Initial residual = 0.0180231, Final residual = 7.03807e-07, No Iterations 4
GAMG:  Solving for solute, Initial residual = 0.000260767, Final residual = 9.40721e-07, No Iterations 3
GAMG:  Solving for solvent, Initial residual = 0.00026073, Final residual = 9.40688e-07, No Iterations 3
GAMG:  Solving for h, Initial residual = 0.233199, Final residual = 9.18025e-05, No Iterations 1
T min/max   293.15, 306.391
GAMG:  Solving for p, Initial residual = 0.0255058, Final residual = 0.00126461, No Iterations 32
time step continuity errors : sum local = 0, global = 0, cumulative = 0
GAMG:  Solving for p, Initial residual = 0.0287735, Final residual = 9.70246e-05, No Iterations 52
time step continuity errors : sum local = 0, global = 0, cumulative = 0
PIMPLE: iteration 5
smoothSolver:  Solving for Ux, Initial residual = 0.00274505, Final residual = 6.0187e-07, No Iterations 3
smoothSolver:  Solving for Uy, Initial residual = 0.00442526, Final residual = 1.34527e-07, No Iterations 4
smoothSolver:  Solving for Uz, Initial residual = 0.0149255, Final residual = 6.92721e-07, No Iterations 4
GAMG:  Solving for solute, Initial residual = 0.000169394, Final residual = 8.88968e-07, No Iterations 3
GAMG:  Solving for solvent, Initial residual = 0.000169372, Final residual = 8.88937e-07, No Iterations 3
GAMG:  Solving for h, Initial residual = 0.115724, Final residual = 0.000116345, No Iterations 1
T min/max   293.15, 306.906
GAMG:  Solving for p, Initial residual = 0.0288821, Final residual = 0.00139419, No Iterations 18
time step continuity errors : sum local = 0, global = 0, cumulative = 0
GAMG:  Solving for p, Initial residual = 0.010417, Final residual = 9.83432e-05, No Iterations 38
time step continuity errors : sum local = 0, global = 0, cumulative = 0
PIMPLE: iteration 6
smoothSolver:  Solving for Ux, Initial residual = 0.00595383, Final residual = 5.87204e-07, No Iterations 3
smoothSolver:  Solving for Uy, Initial residual = 0.00394502, Final residual = 1.25359e-07, No Iterations 4
smoothSolver:  Solving for Uz, Initial residual = 0.01297, Final residual = 6.64626e-07, No Iterations 4
GAMG:  Solving for solute, Initial residual = 0.000148419, Final residual = 8.41685e-07, No Iterations 3
GAMG:  Solving for solvent, Initial residual = 0.000148401, Final residual = 8.41655e-07, No Iterations 3
GAMG:  Solving for h, Initial residual = 0.0633376, Final residual = 0.000107213, No Iterations 1
T min/max   293.15, 307.224
GAMG:  Solving for p, Initial residual = 0.0163946, Final residual = 0.00075471, No Iterations 12
time step continuity errors : sum local = 0, global = 0, cumulative = 0
GAMG:  Solving for p, Initial residual = 0.00781591, Final residual = 9.89665e-05, No Iterations 28
time step continuity errors : sum local = 0, global = 0, cumulative = 0
PIMPLE: iteration 7
smoothSolver:  Solving for Ux, Initial residual = 0.00241533, Final residual = 5.25364e-07, No Iterations 3
smoothSolver:  Solving for Uy, Initial residual = 0.00349916, Final residual = 9.54889e-07, No Iterations 3
smoothSolver:  Solving for Uz, Initial residual = 0.0118294, Final residual = 6.28086e-07, No Iterations 4
GAMG:  Solving for solute, Initial residual = 0.000169301, Final residual = 7.91456e-07, No Iterations 3
GAMG:  Solving for solvent, Initial residual = 0.000169287, Final residual = 7.91428e-07, No Iterations 3
GAMG:  Solving for h, Initial residual = 0.0416307, Final residual = 9.15203e-05, No Iterations 1
T min/max   293.15, 307.443
GAMG:  Solving for p, Initial residual = 0.0136365, Final residual = 0.0008469, No Iterations 12
time step continuity errors : sum local = 0, global = 0, cumulative = 0
GAMG:  Solving for p, Initial residual = 0.00696715, Final residual = 9.74231e-05, No Iterations 28
time step continuity errors : sum local = 0, global = 0, cumulative = 0
PIMPLE: iteration 8
smoothSolver:  Solving for Ux, Initial residual = 0.00124915, Final residual = 4.95806e-07, No Iterations 3
smoothSolver:  Solving for Uy, Initial residual = 0.00312486, Final residual = 9.09748e-07, No Iterations 3
smoothSolver:  Solving for Uz, Initial residual = 0.0110032, Final residual = 6.00138e-07, No Iterations 4
GAMG:  Solving for solute, Initial residual = 0.000123959, Final residual = 7.41887e-07, No Iterations 3
GAMG:  Solving for solvent, Initial residual = 0.000123948, Final residual = 7.41861e-07, No Iterations 3
GAMG:  Solving for h, Initial residual = 0.0281536, Final residual = 7.97386e-05, No Iterations 1
T min/max   293.15, 307.575
GAMG:  Solving for p, Initial residual = 0.0122654, Final residual = 0.000655351, No Iterations 2
time step continuity errors : sum local = 0, global = 0, cumulative = 0
GAMG:  Solving for p, Initial residual = 0.00489811, Final residual = 9.79471e-05, No Iterations 6
time step continuity errors : sum local = 0, global = 0, cumulative = 0
PIMPLE: iteration 9
smoothSolver:  Solving for Ux, Initial residual = 0.00113282, Final residual = 4.73015e-07, No Iterations 3
smoothSolver:  Solving for Uy, Initial residual = 0.00287618, Final residual = 8.68247e-07, No Iterations 3
smoothSolver:  Solving for Uz, Initial residual = 0.0102728, Final residual = 5.78747e-07, No Iterations 4
GAMG:  Solving for solute, Initial residual = 0.000120431, Final residual = 6.93348e-07, No Iterations 3
GAMG:  Solving for solvent, Initial residual = 0.000120427, Final residual = 6.93324e-07, No Iterations 3
GAMG:  Solving for h, Initial residual = 0.018494, Final residual = 7.03203e-05, No Iterations 1
T min/max   293.15, 307.65
GAMG:  Solving for p, Initial residual = 0.0108803, Final residual = 0.000553369, No Iterations 2
time step continuity errors : sum local = 0, global = 0, cumulative = 0
GAMG:  Solving for p, Initial residual = 0.00428123, Final residual = 8.86719e-05, No Iterations 5
time step continuity errors : sum local = 0, global = 0, cumulative = 0
PIMPLE: iteration 10
smoothSolver:  Solving for Ux, Initial residual = 0.000972053, Final residual = 4.49301e-07, No Iterations 3
smoothSolver:  Solving for Uy, Initial residual = 0.00267252, Final residual = 8.28531e-07, No Iterations 3
smoothSolver:  Solving for Uz, Initial residual = 0.00958304, Final residual = 5.5785e-07, No Iterations 4
GAMG:  Solving for solute, Initial residual = 0.000130918, Final residual = 6.46656e-07, No Iterations 3
GAMG:  Solving for solvent, Initial residual = 0.000130914, Final residual = 6.46634e-07, No Iterations 3
GAMG:  Solving for h, Initial residual = 0.0126147, Final residual = 6.19131e-05, No Iterations 1
T min/max   293.15, 307.691
GAMG:  Solving for p, Initial residual = 0.00990676, Final residual = 0.000604725, No Iterations 2
time step continuity errors : sum local = 0, global = 0, cumulative = 0
GAMG:  Solving for p, Initial residual = 0.00404628, Final residual = 8.13777e-05, No Iterations 14
time step continuity errors : sum local = 0, global = 0, cumulative = 0
PIMPLE: iteration 11
smoothSolver:  Solving for Ux, Initial residual = 0.000875239, Final residual = 4.27336e-07, No Iterations 3
smoothSolver:  Solving for Uy, Initial residual = 0.00249701, Final residual = 7.90069e-07, No Iterations 3
smoothSolver:  Solving for Uz, Initial residual = 0.00895776, Final residual = 5.38071e-07, No Iterations 4
GAMG:  Solving for solute, Initial residual = 0.000107371, Final residual = 5.93813e-07, No Iterations 3
GAMG:  Solving for solvent, Initial residual = 0.000107367, Final residual = 5.93793e-07, No Iterations 3
GAMG:  Solving for h, Initial residual = 0.00882491, Final residual = 5.4892e-05, No Iterations 1
T min/max   293.15, 307.714
GAMG:  Solving for p, Initial residual = 0.00910241, Final residual = 0.000464235, No Iterations 2
time step continuity errors : sum local = 0, global = 0, cumulative = 0
GAMG:  Solving for p, Initial residual = 0.00356127, Final residual = 6.52684e-05, No Iterations 4
time step continuity errors : sum local = 0, global = 0, cumulative = 0
PIMPLE: iteration 12
smoothSolver:  Solving for Ux, Initial residual = 0.00078826, Final residual = 4.06232e-07, No Iterations 3
smoothSolver:  Solving for Uy, Initial residual = 0.00233322, Final residual = 7.5366e-07, No Iterations 3
smoothSolver:  Solving for Uz, Initial residual = 0.00841528, Final residual = 5.19664e-07, No Iterations 4
GAMG:  Solving for solute, Initial residual = 9.7757e-05, Final residual = 5.42439e-07, No Iterations 3
GAMG:  Solving for solvent, Initial residual = 9.77534e-05, Final residual = 5.4242e-07, No Iterations 3
GAMG:  Solving for h, Initial residual = 0.00666035, Final residual = 4.88706e-05, No Iterations 1
T min/max   293.15, 307.726
GAMG:  Solving for p, Initial residual = 0.00835353, Final residual = 0.000402053, No Iterations 2
time step continuity errors : sum local = 0, global = 0, cumulative = 0
GAMG:  Solving for p, Initial residual = 0.00324405, Final residual = 7.256e-05, No Iterations 3
time step continuity errors : sum local = 0, global = 0, cumulative = 0
PIMPLE: iteration 13
smoothSolver:  Solving for Ux, Initial residual = 0.000716693, Final residual = 3.869e-07, No Iterations 3
smoothSolver:  Solving for Uy, Initial residual = 0.00218272, Final residual = 7.18734e-07, No Iterations 3
smoothSolver:  Solving for Uz, Initial residual = 0.00793074, Final residual = 5.01862e-07, No Iterations 4
GAMG:  Solving for solute, Initial residual = 9.34235e-05, Final residual = 4.97944e-07, No Iterations 3
GAMG:  Solving for solvent, Initial residual = 9.342e-05, Final residual = 4.97927e-07, No Iterations 3
GAMG:  Solving for h, Initial residual = 0.0051822, Final residual = 4.36964e-05, No Iterations 1
T min/max   293.15, 307.733
GAMG:  Solving for p, Initial residual = 0.00767023, Final residual = 0.000963797, No Iterations 1
time step continuity errors : sum local = 0, global = 0, cumulative = 0
GAMG:  Solving for p, Initial residual = 0.0027868, Final residual = 9.59369e-05, No Iterations 3
time step continuity errors : sum local = 0, global = 0, cumulative = 0
PIMPLE: iteration 14
smoothSolver:  Solving for Ux, Initial residual = 0.000659898, Final residual = 3.70115e-07, No Iterations 3
smoothSolver:  Solving for Uy, Initial residual = 0.00204709, Final residual = 6.86914e-07, No Iterations 3
smoothSolver:  Solving for Uz, Initial residual = 0.00750541, Final residual = 4.86473e-07, No Iterations 4
GAMG:  Solving for solute, Initial residual = 8.36986e-05, Final residual = 4.56211e-07, No Iterations 3
GAMG:  Solving for solvent, Initial residual = 8.36957e-05, Final residual = 4.56195e-07, No Iterations 3
GAMG:  Solving for h, Initial residual = 0.00412575, Final residual = 3.89934e-05, No Iterations 1
T min/max   293.15, 307.737
GAMG:  Solving for p, Initial residual = 0.00716512, Final residual = 0.000872578, No Iterations 1
time step continuity errors : sum local = 0, global = 0, cumulative = 0
GAMG:  Solving for p, Initial residual = 0.00260068, Final residual = 9.86452e-05, No Iterations 4
time step continuity errors : sum local = 0, global = 0, cumulative = 0
PIMPLE: iteration 15
smoothSolver:  Solving for Ux, Initial residual = 0.000613699, Final residual = 3.56127e-07, No Iterations 3
smoothSolver:  Solving for Uy, Initial residual = 0.00192798, Final residual = 6.59241e-07, No Iterations 3
smoothSolver:  Solving for Uz, Initial residual = 0.00711027, Final residual = 4.71357e-07, No Iterations 4
GAMG:  Solving for solute, Initial residual = 8.61752e-05, Final residual = 4.24536e-07, No Iterations 3
GAMG:  Solving for solvent, Initial residual = 8.61722e-05, Final residual = 4.24521e-07, No Iterations 3
GAMG:  Solving for h, Initial residual = 0.0033489, Final residual = 1.47517e-06, No Iterations 2
T min/max   293.15, 307.739
GAMG:  Solving for p, Initial residual = 0.00679117, Final residual = 0.000793242, No Iterations 1
time step continuity errors : sum local = 0, global = 0, cumulative = 0
GAMG:  Solving for p, Initial residual = 0.00241977, Final residual = 7.70171e-05, No Iterations 3
time step continuity errors : sum local = 0, global = 0, cumulative = 0
PIMPLE: iteration 16
smoothSolver:  Solving for Ux, Initial residual = 0.000571249, Final residual = 3.39272e-07, No Iterations 3
smoothSolver:  Solving for Uy, Initial residual = 0.00180625, Final residual = 6.29282e-07, No Iterations 3
smoothSolver:  Solving for Uz, Initial residual = 0.00671248, Final residual = 4.54294e-07, No Iterations 4
GAMG:  Solving for solute, Initial residual = 8.18993e-05, Final residual = 3.85002e-07, No Iterations 3
GAMG:  Solving for solvent, Initial residual = 8.18964e-05, Final residual = 3.84988e-07, No Iterations 3
GAMG:  Solving for h, Initial residual = 0.00272688, Final residual = 1.32961e-06, No Iterations 2
T min/max   293.15, 307.74
GAMG:  Solving for p, Initial residual = 0.00625316, Final residual = 0.000754801, No Iterations 1
time step continuity errors : sum local = 0, global = 0, cumulative = 0
[...]
GAMG:  Solving for solvent, Initial residual = 3.41e-05, Final residual = 1.70559e-07, No Iterations 3
GAMG:  Solving for h, Initial residual = 0.000169315, Final residual = 9.8723e-08, No Iterations 2
T min/max   293.147, 313.099
GAMG:  Solving for p, Initial residual = 0.00381972, Final residual = 0.000778225, No Iterations 1
time step continuity errors : sum local = 0, global = 0, cumulative = 0
GAMG:  Solving for p, Initial residual = 0.00146642, Final residual = 9.10961e-05, No Iterations 11
time step continuity errors : sum local = 0, global = 0, cumulative = 0
PIMPLE: iteration 8
smoothSolver:  Solving for Ux, Initial residual = 0.000346933, Final residual = 7.79416e-07, No Iterations 2
smoothSolver:  Solving for Uy, Initial residual = 0.000357244, Final residual = 9.75035e-07, No Iterations 2
smoothSolver:  Solving for Uz, Initial residual = 0.000833908, Final residual = 2.79293e-07, No Iterations 3
GAMG:  Solving for solute, Initial residual = 2.24055e-05, Final residual = 1.471e-07, No Iterations 3
GAMG:  Solving for solvent, Initial residual = 2.31316e-05, Final residual = 1.52189e-07, No Iterations 3
GAMG:  Solving for h, Initial residual = 8.64889e-05, Final residual = 7.68162e-08, No Iterations 2
T min/max   293.147, 313.099
GAMG:  Solving for p, Initial residual = 0.00276561, Final residual = 0.000302091, No Iterations 1
time step continuity errors : sum local = 0, global = 0, cumulative = 0
GAMG:  Solving for p, Initial residual = 0.000865882, Final residual = 8.33262e-05, No Iterations 4
time step continuity errors : sum local = 0, global = 0, cumulative = 0
PIMPLE: iteration 9
smoothSolver:  Solving for Ux, Initial residual = 0.000315893, Final residual = 6.92841e-07, No Iterations 2
smoothSolver:  Solving for Uy, Initial residual = 0.000295504, Final residual = 8.6956e-07, No Iterations 2
smoothSolver:  Solving for Uz, Initial residual = 0.000704375, Final residual = 2.51839e-07, No Iterations 3
GAMG:  Solving for solute, Initial residual = 1.96762e-05, Final residual = 1.3052e-07, No Iterations 3
GAMG:  Solving for solvent, Initial residual = 2.03258e-05, Final residual = 1.35036e-07, No Iterations 3
GAMG:  Solving for h, Initial residual = 6.17404e-05, Final residual = 6.11428e-08, No Iterations 2
T min/max   293.147, 313.099
GAMG:  Solving for p, Initial residual = 0.00215213, Final residual = 0.000210588, No Iterations 1
time step continuity errors : sum local = 0, global = 0, cumulative = 0
GAMG:  Solving for p, Initial residual = 0.000673892, Final residual = 7.61461e-05, No Iterations 2
time step continuity errors : sum local = 0, global = 0, cumulative = 0
PIMPLE: iteration 10
smoothSolver:  Solving for Ux, Initial residual = 0.000270782, Final residual = 6.11479e-07, No Iterations 2
smoothSolver:  Solving for Uy, Initial residual = 0.00025312, Final residual = 7.82269e-07, No Iterations 2
smoothSolver:  Solving for Uz, Initial residual = 0.000603004, Final residual = 2.28084e-07, No Iterations 3
GAMG:  Solving for solute, Initial residual = 1.69098e-05, Final residual = 1.1421e-07, No Iterations 3
GAMG:  Solving for solvent, Initial residual = 1.74805e-05, Final residual = 1.18161e-07, No Iterations 3
GAMG:  Solving for h, Initial residual = 4.55549e-05, Final residual = 4.95713e-08, No Iterations 2
T min/max   293.147, 313.099
GAMG:  Solving for p, Initial residual = 0.00176823, Final residual = 0.000164372, No Iterations 1
time step continuity errors : sum local = 0, global = 0, cumulative = 0
GAMG:  Solving for p, Initial residual = 0.000556076, Final residual = 8.37481e-05, No Iterations 1
time step continuity errors : sum local = 0, global = 0, cumulative = 0
PIMPLE: iteration 11
smoothSolver:  Solving for Ux, Initial residual = 0.000844287, Final residual = 9.25088e-07, No Iterations 13
smoothSolver:  Solving for Uy, Initial residual = 0.000687496, Final residual = 7.81214e-07, No Iterations 16
smoothSolver:  Solving for Uz, Initial residual = 0.00203551, Final residual = 7.81379e-07, No Iterations 18
GAMG:  Solving for solute, Initial residual = 1.45404e-05, Final residual = 9.92367e-08, No Iterations 3
GAMG:  Solving for solvent, Initial residual = 1.50346e-05, Final residual = 1.0267e-07, No Iterations 3
GAMG:  Solving for h, Initial residual = 7.29702e-05, Final residual = 3.95509e-09, No Iterations 6
T min/max   293.147, 313.099
GAMG:  Solving for p, Initial residual = 0.293078, Final residual = 0.00918913, No Iterations 2
time step continuity errors : sum local = 0, global = 0, cumulative = 0
GAMG:  Solving for p, Initial residual = 0.0528792, Final residual = 6.16831e-05, No Iterations 8
time step continuity errors : sum local = 0, global = 0, cumulative = 0
smoothSolver:  Solving for epsilon, Initial residual = 0.00568659, Final residual = 9.94298e-07, No Iterations 18
smoothSolver:  Solving for k, Initial residual = 0.0242933, Final residual = 9.15808e-07, No Iterations 25
PIMPLE: converged in 11 iterations
ExecutionTime = 150.98 s  ClockTime = 155 s

Courant Number mean: 0.000425729 max: 0.0438002
Time = 0.028

Evolving kinematicCloud

Solving 3-D cloud kinematicCloud

Cloud: kinematicCloud injector: model
    Added 100 new parcels

Cloud: kinematicCloud
    Current number of parcels       = 2800
    Current mass in system          = 7.89675e-05
    Linear momentum                 = (5.08078e-05 -9.62013e-07 5.21861e-10)
   |Linear momentum|                = 5.08169e-05
    Linear kinetic energy           = 1.6766e-05
    model:
        number of parcels added     = 2800
        mass introduced             = 0
    Parcel fate (number, mass)      : patch frontAndBack
      - escape                      = 0, 0
      - stick                       = 0, 0
    Parcel fate (number, mass)      : patch walls
      - escape                      = 0, 0
      - stick                       = 0, 0
    Parcel fate (number, mass)      : patch sup_side_inlet|inf_side_inlet|solution_inlet|outlet
      - escape                      = 0, 0
      - stick                       = 0, 0
    Min cell volume fraction        = 0
    Max cell volume fraction        = 0.027582
    Min dense number of parcels     = 5.59731

PIMPLE: iteration 1
smoothSolver:  Solving for Ux, Initial residual = 0.00199864, Final residual = 2.16837e-07, No Iterations 3
smoothSolver:  Solving for Uy, Initial residual = 0.0021599, Final residual = 2.56736e-07, No Iterations 3
smoothSolver:  Solving for Uz, Initial residual = 0.00418068, Final residual = 6.81205e-07, No Iterations 3
GAMG:  Solving for solute, Initial residual = 0.00442095, Final residual = 1.27814e-05, No Iterations 2
GAMG:  Solving for solvent, Initial residual = 0.00271196, Final residual = 1.28095e-05, No Iterations 2
GAMG:  Solving for h, Initial residual = 0.00323758, Final residual = 2.05182e-05, No Iterations 1
T min/max   293.147, 313.088
GAMG:  Solving for p, Initial residual = 0.370368, Final residual = 0.0159123, No Iterations 4
time step continuity errors : sum local = 0, global = 0, cumulative = 0
GAMG:  Solving for p, Initial residual = 0.0603127, Final residual = 8.90472e-05, No Iterations 54
time step continuity errors : sum local = 0, global = 0, cumulative = 0
PIMPLE: iteration 2
smoothSolver:  Solving for Ux, Initial residual = 0.0254836, Final residual = 4.95039e-07, No Iterations 3
smoothSolver:  Solving for Uy, Initial residual = 0.00979653, Final residual = 4.50101e-07, No Iterations 3
smoothSolver:  Solving for Uz, Initial residual = 0.00556671, Final residual = 9.2935e-07, No Iterations 3
GAMG:  Solving for solute, Initial residual = 0.000763425, Final residual = 4.10441e-06, No Iterations 2
GAMG:  Solving for solvent, Initial residual = 0.000828834, Final residual = 4.28167e-06, No Iterations 2
GAMG:  Solving for h, Initial residual = 0.00337686, Final residual = 1.13823e-05, No Iterations 1
T min/max   293.149, 313.084
GAMG:  Solving for p, Initial residual = 0.0374715, Final residual = 0.00184553, No Iterations 18
time step continuity errors : sum local = 0, global = 0, cumulative = 0
GAMG:  Solving for p, Initial residual = 0.0132558, Final residual = 9.6578e-05, No Iterations 46
time step continuity errors : sum local = 0, global = 0, cumulative = 0
PIMPLE: iteration 3
smoothSolver:  Solving for Ux, Initial residual = 0.0183583, Final residual = 3.82925e-07, No Iterations 3
smoothSolver:  Solving for Uy, Initial residual = 0.00373735, Final residual = 2.97508e-07, No Iterations 3
smoothSolver:  Solving for Uz, Initial residual = 0.00348479, Final residual = 7.3038e-07, No Iterations 3
GAMG:  Solving for solute, Initial residual = 9.04939e-05, Final residual = 2.82061e-07, No Iterations 3
GAMG:  Solving for solvent, Initial residual = 8.86925e-05, Final residual = 2.92246e-07, No Iterations 3
GAMG:  Solving for h, Initial residual = 0.00230182, Final residual = 7.43808e-06, No Iterations 1
T min/max   293.148, 313.076
GAMG:  Solving for p, Initial residual = 0.0337745, Final residual = 0.00111516, No Iterations 8
time step continuity errors : sum local = 0, global = 0, cumulative = 0
GAMG:  Solving for p, Initial residual = 0.0113297, Final residual = 9.54869e-05, No Iterations 28
time step continuity errors : sum local = 0, global = 0, cumulative = 0
PIMPLE: iteration 4
smoothSolver:  Solving for Ux, Initial residual = 0.00811125, Final residual = 2.41389e-07, No Iterations 3
smoothSolver:  Solving for Uy, Initial residual = 0.00102527, Final residual = 1.93312e-07, No Iterations 3
smoothSolver:  Solving for Uz, Initial residual = 0.00234642, Final residual = 5.2314e-07, No Iterations 3
GAMG:  Solving for solute, Initial residual = 5.98002e-05, Final residual = 2.23889e-07, No Iterations 3
GAMG:  Solving for solvent, Initial residual = 6.14149e-05, Final residual = 2.31991e-07, No Iterations 3
GAMG:  Solving for h, Initial residual = 0.000851552, Final residual = 4.60649e-06, No Iterations 1
T min/max   293.147, 313.074
GAMG:  Solving for p, Initial residual = 0.0220647, Final residual = 0.000877417, No Iterations 10
time step continuity errors : sum local = 0, global = 0, cumulative = 0
GAMG:  Solving for p, Initial residual = 0.00656827, Final residual = 9.72422e-05, No Iterations 30
time step continuity errors : sum local = 0, global = 0, cumulative = 0
PIMPLE: iteration 5
smoothSolver:  Solving for Ux, Initial residual = 0.000751956, Final residual = 1.38125e-07, No Iterations 3
smoothSolver:  Solving for Uy, Initial residual = 0.000914048, Final residual = 1.56214e-07, No Iterations 3
smoothSolver:  Solving for Uz, Initial residual = 0.00167464, Final residual = 4.08742e-07, No Iterations 3
GAMG:  Solving for solute, Initial residual = 3.84142e-05, Final residual = 1.96086e-07, No Iterations 3
GAMG:  Solving for solvent, Initial residual = 3.95518e-05, Final residual = 2.03186e-07, No Iterations 3
GAMG:  Solving for h, Initial residual = 0.000464456, Final residual = 3.32236e-06, No Iterations 1
T min/max   293.147, 313.073
GAMG:  Solving for p, Initial residual = 0.0113012, Final residual = 0.000779462, No Iterations 2
time step continuity errors : sum local = 0, global = 0, cumulative = 0
GAMG:  Solving for p, Initial residual = 0.00314218, Final residual = 9.72907e-05, No Iterations 16
time step continuity errors : sum local = 0, global = 0, cumulative = 0
PIMPLE: iteration 6
smoothSolver:  Solving for Ux, Initial residual = 0.00138939, Final residual = 1.20713e-07, No Iterations 3
smoothSolver:  Solving for Uy, Initial residual = 0.000532284, Final residual = 1.35194e-07, No Iterations 3
smoothSolver:  Solving for Uz, Initial residual = 0.00123914, Final residual = 3.46353e-07, No Iterations 3
GAMG:  Solving for solute, Initial residual = 3.0733e-05, Final residual = 1.78639e-07, No Iterations 3
GAMG:  Solving for solvent, Initial residual = 3.17185e-05, Final residual = 1.8511e-07, No Iterations 3
GAMG:  Solving for h, Initial residual = 0.000323851, Final residual = 2.37055e-06, No Iterations 1
T min/max   293.147, 313.073
GAMG:  Solving for p, Initial residual = 0.00594866, Final residual = 0.000914251, No Iterations 1
time step continuity errors : sum local = 0, global = 0, cumulative = 0
GAMG:  Solving for p, Initial residual = 0.00199206, Final residual = 9.36803e-05, No Iterations 9
time step continuity errors : sum local = 0, global = 0, cumulative = 0
PIMPLE: iteration 7
smoothSolver:  Solving for Ux, Initial residual = 0.00069141, Final residual = 9.2124e-07, No Iterations 2
smoothSolver:  Solving for Uy, Initial residual = 0.000427705, Final residual = 1.21258e-07, No Iterations 3
smoothSolver:  Solving for Uz, Initial residual = 0.000980645, Final residual = 3.0424e-07, No Iterations 3
GAMG:  Solving for solute, Initial residual = 3.21808e-05, Final residual = 1.61233e-07, No Iterations 3
GAMG:  Solving for solvent, Initial residual = 3.32754e-05, Final residual = 1.67073e-07, No Iterations 3
GAMG:  Solving for h, Initial residual = 0.000159352, Final residual = 9.32918e-08, No Iterations 2
T min/max   293.147, 313.074
GAMG:  Solving for p, Initial residual = 0.00380605, Final residual = 0.000760909, No Iterations 1
time step continuity errors : sum local = 0, global = 0, cumulative = 0
GAMG:  Solving for p, Initial residual = 0.00145938, Final residual = 9.01247e-05, No Iterations 11
time step continuity errors : sum local = 0, global = 0, cumulative = 0
PIMPLE: iteration 8
smoothSolver:  Solving for Ux, Initial residual = 0.000346657, Final residual = 7.73232e-07, No Iterations 2
smoothSolver:  Solving for Uy, Initial residual = 0.000349399, Final residual = 9.31972e-07, No Iterations 2
smoothSolver:  Solving for Uz, Initial residual = 0.000812118, Final residual = 2.71317e-07, No Iterations 3
GAMG:  Solving for solute, Initial residual = 2.17686e-05, Final residual = 1.4355e-07, No Iterations 3
GAMG:  Solving for solvent, Initial residual = 2.25103e-05, Final residual = 1.4875e-07, No Iterations 3
GAMG:  Solving for h, Initial residual = 8.10248e-05, Final residual = 7.29769e-08, No Iterations 2
T min/max   293.147, 313.074
GAMG:  Solving for p, Initial residual = 0.00275591, Final residual = 0.000294687, No Iterations 1
time step continuity errors : sum local = 0, global = 0, cumulative = 0
GAMG:  Solving for p, Initial residual = 0.000865788, Final residual = 8.0948e-05, No Iterations 4
time step continuity errors : sum local = 0, global = 0, cumulative = 0
PIMPLE: iteration 9
smoothSolver:  Solving for Ux, Initial residual = 0.000316097, Final residual = 6.86662e-07, No Iterations 2
smoothSolver:  Solving for Uy, Initial residual = 0.000289151, Final residual = 8.28435e-07, No Iterations 2
smoothSolver:  Solving for Uz, Initial residual = 0.000685849, Final residual = 2.44323e-07, No Iterations 3
GAMG:  Solving for solute, Initial residual = 1.91232e-05, Final residual = 1.27127e-07, No Iterations 3
GAMG:  Solving for solvent, Initial residual = 1.97864e-05, Final residual = 1.31733e-07, No Iterations 3
GAMG:  Solving for h, Initial residual = 5.78141e-05, Final residual = 5.8187e-08, No Iterations 2
T min/max   293.147, 313.074
GAMG:  Solving for p, Initial residual = 0.00213964, Final residual = 0.000205212, No Iterations 1
time step continuity errors : sum local = 0, global = 0, cumulative = 0
GAMG:  Solving for p, Initial residual = 0.000668233, Final residual = 7.22278e-05, No Iterations 2
time step continuity errors : sum local = 0, global = 0, cumulative = 0
PIMPLE: iteration 10
smoothSolver:  Solving for Ux, Initial residual = 0.000270511, Final residual = 6.05598e-07, No Iterations 2
smoothSolver:  Solving for Uy, Initial residual = 0.000247723, Final residual = 7.42487e-07, No Iterations 2
smoothSolver:  Solving for Uz, Initial residual = 0.000587616, Final residual = 2.21424e-07, No Iterations 3
GAMG:  Solving for solute, Initial residual = 1.63998e-05, Final residual = 1.112e-07, No Iterations 3
GAMG:  Solving for solvent, Initial residual = 1.69809e-05, Final residual = 1.15228e-07, No Iterations 3
GAMG:  Solving for h, Initial residual = 4.24373e-05, Final residual = 4.70789e-08, No Iterations 2
T min/max   293.147, 313.075
GAMG:  Solving for p, Initial residual = 0.00175493, Final residual = 0.000157645, No Iterations 1
time step continuity errors : sum local = 0, global = 0, cumulative = 0
GAMG:  Solving for p, Initial residual = 0.000545174, Final residual = 7.87616e-05, No Iterations 1
time step continuity errors : sum local = 0, global = 0, cumulative = 0
PIMPLE: iteration 11
smoothSolver:  Solving for Ux, Initial residual = 0.000839719, Final residual = 8.05667e-07, No Iterations 14
smoothSolver:  Solving for Uy, Initial residual = 0.000672036, Final residual = 8.68598e-07, No Iterations 15
smoothSolver:  Solving for Uz, Initial residual = 0.00196471, Final residual = 7.97141e-07, No Iterations 18
GAMG:  Solving for solute, Initial residual = 1.41143e-05, Final residual = 9.64106e-08, No Iterations 3
GAMG:  Solving for solvent, Initial residual = 1.46179e-05, Final residual = 9.99034e-08, No Iterations 3
GAMG:  Solving for h, Initial residual = 6.75092e-05, Final residual = 3.55732e-09, No Iterations 6
T min/max   293.147, 313.076
GAMG:  Solving for p, Initial residual = 0.293317, Final residual = 0.0091183, No Iterations 2
time step continuity errors : sum local = 0, global = 0, cumulative = 0
GAMG:  Solving for p, Initial residual = 0.0526489, Final residual = 6.17554e-05, No Iterations 8
time step continuity errors : sum local = 0, global = 0, cumulative = 0
smoothSolver:  Solving for epsilon, Initial residual = 0.0052759, Final residual = 9.06821e-07, No Iterations 18
smoothSolver:  Solving for k, Initial residual = 0.0228407, Final residual = 8.37355e-07, No Iterations 25
PIMPLE: converged in 11 iterations
ExecutionTime = 153.96 s  ClockTime = 158 s

Courant Number mean: 0.000426516 max: 0.0437927
Time = 0.029

[1] #0  Foam::error::printStack(Foam::Ostream&)Evolving kinematicCloud
 at ??:?
[1] #1  Foam::sigFpe::sigHandler(int) at ??:?
[1] #2  ? in "/lib/x86_64-linux-gnu/libc.so.6"
[1] #3  ? in "/home/oztekinlab/OpenFOAM/OpenFOAM-5.x/platforms/linux64GccDPInt32Opt/bin/mppicPbeCryFoam"
[1] #4  ? in "/lib/x86_64-linux-gnu/libc.so.6"
[1] #5  __libc_start_main in "/lib/x86_64-linux-gnu/libc.so.6"
[1] #6  ? in "/home/oztekinlab/OpenFOAM/OpenFOAM-5.x/platforms/linux64GccDPInt32Opt/bin/mppicPbeCryFoam"
[oztekinlab-All-Series:1597937] *** Process received signal ***
[oztekinlab-All-Series:1597937] Signal: Floating point exception (8)
[oztekinlab-All-Series:1597937] Signal code:  (-6)
[oztekinlab-All-Series:1597937] Failing at address: 0x3e8001861f1
[oztekinlab-All-Series:1597937] [ 0] /lib/x86_64-linux-gnu/libc.so.6(+0x42520)[0x7f8af2242520]
[oztekinlab-All-Series:1597937] [ 1] /lib/x86_64-linux-gnu/libc.so.6(pthread_kill+0x12c)[0x7f8af22969fc]
[oztekinlab-All-Series:1597937] [ 2] /lib/x86_64-linux-gnu/libc.so.6(raise+0x16)[0x7f8af2242476]
[oztekinlab-All-Series:1597937] [ 3] /lib/x86_64-linux-gnu/libc.so.6(+0x42520)[0x7f8af2242520]
[oztekinlab-All-Series:1597937] [ 4] mppicPbeCryFoam(+0x4c8b1)[0x55724dfe38b1]
[oztekinlab-All-Series:1597937] [ 5] /lib/x86_64-linux-gnu/libc.so.6(+0x29d90)[0x7f8af2229d90]
[oztekinlab-All-Series:1597937] [ 6] /lib/x86_64-linux-gnu/libc.so.6(__libc_start_main+0x80)[0x7f8af2229e40]
[oztekinlab-All-Series:1597937] [ 7] mppicPbeCryFoam(+0x57295)[0x55724dfee295]
[oztekinlab-All-Series:1597937] *** End of error message ***
--------------------------------------------------------------------------
Primary job  terminated normally, but 1 process returned
a non-zero exit code. Per user-direction, the job has been aborted.
--------------------------------------------------------------------------
--------------------------------------------------------------------------
mpirun noticed that process rank 1 with PID 0 on node oztekinlab-All-Series exited on signal 8 (Floating point exception).
--------------------------------------------------------------------------
